
-------------------------------------------------------------------------
|    ___ _   _ ___                                                      |
|   / __| | | |_  )   Release 5.0.0  "Raven"                            |
|   \__ \ |_| |/ /                                                      |
|   |___/\___//___|   Suite (Mesh Deformation Code)                     |
|                                                                       |
-------------------------------------------------------------------------
| SU2 Original Developers: Dr. Francisco D. Palacios.                   |
|                          Dr. Thomas D. Economon.                      |
-------------------------------------------------------------------------
| SU2 Developers:                                                       |
| - Prof. Juan J. Alonso's group at Stanford University.                |
| - Prof. Piero Colonna's group at Delft University of Technology.      |
| - Prof. Nicolas R. Gauger's group at Kaiserslautern U. of Technology. |
| - Prof. Alberto Guardone's group at Polytechnic University of Milan.  |
| - Prof. Rafael Palacios' group at Imperial College London.            |
| - Prof. Edwin van der Weide's group at the University of Twente.      |
| - Prof. Vincent Terrapon's group at the University of Liege.          |
-------------------------------------------------------------------------
| Copyright (C) 2012-2017 SU2, the open-source CFD code.                |
|                                                                       |
| SU2 is free software; you can redistribute it and/or                  |
| modify it under the terms of the GNU Lesser General Public            |
| License as published by the Free Software Foundation; either          |
| version 2.1 of the License, or (at your option) any later version.    |
|                                                                       |
| SU2 is distributed in the hope that it will be useful,                |
| but WITHOUT ANY WARRANTY; without even the implied warranty of        |
| MERCHANTABILITY or FITNESS FOR A PARTICULAR PURPOSE. See the GNU      |
| Lesser General Public License for more details.                       |
|                                                                       |
| You should have received a copy of the GNU Lesser General Public      |
| License along with SU2. If not, see <http://www.gnu.org/licenses/>.   |
-------------------------------------------------------------------------

------------------------ Physical Case Definition -----------------------
Input mesh file name: mesh_NACA0012_inv.su2

---------------------- Grid deformation parameters ----------------------
Grid deformation using a linear elasticity method.
Design variables definition (markers <-> value <-> param):
Hicks Henne <-> airfoil <-> 0.000440108 <-> ( 0, 0.05 )
Hicks Henne <-> airfoil <-> 0.000376336 <-> ( 0, 0.1 )
Hicks Henne <-> airfoil <-> 0.000286003 <-> ( 0, 0.15 )
Hicks Henne <-> airfoil <-> 0.000186982 <-> ( 0, 0.2 )
Hicks Henne <-> airfoil <-> 9.29921e-05 <-> ( 0, 0.25 )
Hicks Henne <-> airfoil <-> 1.51108e-05 <-> ( 0, 0.3 )
Hicks Henne <-> airfoil <-> -4.06054e-05 <-> ( 0, 0.35 )
Hicks Henne <-> airfoil <-> -7.52136e-05 <-> ( 0, 0.4 )
Hicks Henne <-> airfoil <-> -9.68105e-05 <-> ( 0, 0.45 )
Hicks Henne <-> airfoil <-> -0.000117193 <-> ( 0, 0.5 )
Hicks Henne <-> airfoil <-> -0.000145624 <-> ( 0, 0.55 )
Hicks Henne <-> airfoil <-> -0.000182653 <-> ( 0, 0.6 )
Hicks Henne <-> airfoil <-> -0.000218603 <-> ( 0, 0.65 )
Hicks Henne <-> airfoil <-> -0.000239499 <-> ( 0, 0.7 )
Hicks Henne <-> airfoil <-> -0.00023696 <-> ( 0, 0.75 )
Hicks Henne <-> airfoil <-> -0.000211764 <-> ( 0, 0.8 )
Hicks Henne <-> airfoil <-> -0.000162197 <-> ( 0, 0.85 )
Hicks Henne <-> airfoil <-> -5.51824e-05 <-> ( 0, 0.9 )
Hicks Henne <-> airfoil <-> 0.000197977 <-> ( 0, 0.95 )
Hicks Henne <-> airfoil <-> -0.00202514 <-> ( 1, 0.05 )
Hicks Henne <-> airfoil <-> -0.00322727 <-> ( 1, 0.1 )
Hicks Henne <-> airfoil <-> -0.00371548 <-> ( 1, 0.15 )
Hicks Henne <-> airfoil <-> -0.00363526 <-> ( 1, 0.2 )
Hicks Henne <-> airfoil <-> -0.00314223 <-> ( 1, 0.25 )
Hicks Henne <-> airfoil <-> -0.00240004 <-> ( 1, 0.3 )
Hicks Henne <-> airfoil <-> -0.00155926 <-> ( 1, 0.35 )
Hicks Henne <-> airfoil <-> -0.00073759 <-> ( 1, 0.4 )
Hicks Henne <-> airfoil <-> -8.46325e-06 <-> ( 1, 0.45 )
Hicks Henne <-> airfoil <-> 0.000597783 <-> ( 1, 0.5 )
Hicks Henne <-> airfoil <-> 0.00107998 <-> ( 1, 0.55 )
Hicks Henne <-> airfoil <-> 0.00144185 <-> ( 1, 0.6 )
Hicks Henne <-> airfoil <-> 0.00166435 <-> ( 1, 0.65 )
Hicks Henne <-> airfoil <-> 0.00169 <-> ( 1, 0.7 )
Hicks Henne <-> airfoil <-> 0.00144835 <-> ( 1, 0.75 )
Hicks Henne <-> airfoil <-> 0.000948579 <-> ( 1, 0.8 )
Hicks Henne <-> airfoil <-> 0.000381617 <-> ( 1, 0.85 )
Hicks Henne <-> airfoil <-> 2.80874e-05 <-> ( 1, 0.9 )
Hicks Henne <-> airfoil <-> -0.000161717 <-> ( 1, 0.95 )

-------------------------- Output Information ---------------------------
Output mesh file name: mesh_NACA0012_inv_deform.su2. 
No file for visualizing the deformation.
Cell stiffness scaled by inverse of the cell volume.

------------------- Config File Boundary Information --------------------
Euler wall boundary marker(s): airfoil.
Far-field boundary marker(s): farfield.

---------------------- Read Grid File Information -----------------------
Two dimensional problem.
5233 points.
2 surface markers.
200 boundary elements in index 0 (Marker = airfoil).
50 boundary elements in index 1 (Marker = farfield).
10216 triangles.

----------------------- Preprocessing computations ----------------------
Setting local point connectivity.
Checking the numerical grid orientation.
Identify edges and vertices.
Computing centers of gravity.
Setting the bound control volume structure.

------------------------- Surface grid deformation ----------------------
Performing the deformation of the surface grid.

----------------------- Volumetric grid deformation ---------------------
Performing the deformation of the volumetric grid.
Computing volumes of the grid elements.
Min. volume: 4.14044e-08, max. volume: 4.10267.

# LU_SGS preconditioner.

# FGMRES residual history
# Residual tolerance target = 4.14044e-11
# Initial residual norm     = 0.00488578
     0     1
     50     8.51871e-05
     100     2.61678e-09
# FGMRES final (true) residual:
# Iteration = 115: |res|/|res0| = 3.33232e-11.

Computing volumes of the grid elements.
Non-linear iter.: 1/1. Linear iter.: 115. Min. area: 4.15646e-08. Error: 1.6281e-13.

----------------------- Write deformed grid files -----------------------
Merging grid connectivity.
Merging grid coordinates.
Writing .su2 file.
Adding any FFD information to the SU2 file.

Completed in 0.474967 seconds on 1 core.

------------------------- Exit Success (SU2_DEF) ------------------------

