
-------------------------------------------------------------------------
|    ___ _   _ ___                                                      |
|   / __| | | |_  )   Release 5.0.0  "Raven"                            |
|   \__ \ |_| |/ /                                                      |
|   |___/\___//___|   Suite (Computational Fluid Dynamics Code)         |
|                                                                       |
-------------------------------------------------------------------------
| SU2 Original Developers: Dr. Francisco D. Palacios.                   |
|                          Dr. Thomas D. Economon.                      |
-------------------------------------------------------------------------
| SU2 Developers:                                                       |
| - Prof. Juan J. Alonso's group at Stanford University.                |
| - Prof. Piero Colonna's group at Delft University of Technology.      |
| - Prof. Nicolas R. Gauger's group at Kaiserslautern U. of Technology. |
| - Prof. Alberto Guardone's group at Polytechnic University of Milan.  |
| - Prof. Rafael Palacios' group at Imperial College London.            |
| - Prof. Edwin van der Weide's group at the University of Twente.      |
| - Prof. Vincent Terrapon's group at the University of Liege.          |
-------------------------------------------------------------------------
| Copyright (C) 2012-2017 SU2, the open-source CFD code.                |
|                                                                       |
| SU2 is free software; you can redistribute it and/or                  |
| modify it under the terms of the GNU Lesser General Public            |
| License as published by the Free Software Foundation; either          |
| version 2.1 of the License, or (at your option) any later version.    |
|                                                                       |
| SU2 is distributed in the hope that it will be useful,                |
| but WITHOUT ANY WARRANTY; without even the implied warranty of        |
| MERCHANTABILITY or FITNESS FOR A PARTICULAR PURPOSE. See the GNU      |
| Lesser General Public License for more details.                       |
|                                                                       |
| You should have received a copy of the GNU Lesser General Public      |
| License along with SU2. If not, see <http://www.gnu.org/licenses/>.   |
-------------------------------------------------------------------------

------------------------ Physical Case Definition -----------------------
Compressible Euler equations.
Mach number: 0.8.
Angle of attack (AoA): 1.25 deg, and angle of sideslip (AoS): 0 deg.
No restart solution, use the values at infinity (freestream).
Non-Dimensional simulation (P=1.0, Rho=1.0, T=1.0 at the farfield).
The reference length/area (force coefficient) is 1.
The reference length (moment computation) is 1.
Reference origin (moment computation) is (0.25, 0, 0).
Surface(s) where the force coefficients are evaluated: airfoil.
Surface(s) where the objective function is evaluated: airfoil.
Surface(s) plotted in the output file: airfoil.
Surface(s) affected by the design variables: airfoil.
Input mesh file name: mesh_NACA0012_inv.su2

---------------------- Space Numerical Integration ----------------------
Jameson-Schmidt-Turkel scheme for the flow inviscid terms.
JST viscous coefficients (1st, 2nd & 4th): 0.15, 0.5, 0.02.
The method includes a grid stretching correction (p = 0.3).
Second order integration.
Gradient Computation using weighted Least-Squares method.

---------------------- Time Numerical Integration -----------------------
Local time stepping (steady state simulation).
Euler implicit method for the flow equations.
W Multigrid Cycle, with 3 multigrid levels.
Damping factor for the residual restriction: 1.
Damping factor for the correction prolongation: 1.
No CFL adaptation.
Multigrid Level:                       0     1     2     3
Courant-Friedrichs-Lewy number:        5
MG PreSmooth coefficients:             1     2     3     3
MG PostSmooth coefficients:            0     0     0     0
MG CorrecSmooth coefficients:          0     0     0     0

------------------------- Convergence Criteria --------------------------
Maximum number of iterations: 2000.
Cauchy criteria for Drag using 100 elements and epsilon 1e-06.
Start convergence criteria at iteration 10.

-------------------------- Output Information ---------------------------
Writing a flow solution every 250 iterations.
Writing the convergence history every 1 iterations.
The output file format is Paraview ASCII (.vtk).
Convergence history file name: history_direct.
Forces breakdown file name: forces_breakdown.dat.
Surface flow coefficients file name: surface_flow.
Flow variables file name: flow.
Restart flow file name: restart_flow.dat.

------------------- Config File Boundary Information --------------------
Euler wall boundary marker(s): airfoil.
Far-field boundary marker(s): farfield.

---------------------- Read Grid File Information -----------------------
Two dimensional problem.
5233 points.
2 surface markers.
200 boundary elements in index 0 (Marker = airfoil).
50 boundary elements in index 1 (Marker = farfield).
10216 triangles.

------------------------- Geometry Preprocessing ------------------------
Setting point connectivity.
Renumbering points (Reverse Cuthill McKee Ordering).
Recomputing point connectivity.
Setting element connectivity.
Checking the numerical grid orientation.
Identifying edges and vertices.
Computing centers of gravity.
Setting the control volume structure.
Area of the computational grid: 1.25e+03.
Searching for the closest normal neighbors to the surfaces.
Compute the surface curvature.
Max K: 7.84e+03. Mean K: 34.8. Standard deviation K: 494.
Checking for periodicity.
Setting the multigrid structure.
MG level: 0 -> CVs: 5233. Agglomeration rate 1/1.00. CFL 5.
MG level: 1 -> CVs: 1533. Agglomeration rate 1/3.41. CFL 4.06.
MG level: 2 -> CVs: 443. Agglomeration rate 1/3.46. CFL 3.27.
MG level: 3 -> CVs: 125. Agglomeration rate 1/3.54. CFL 2.61.
Computing wall distances.
Wetted area = 2.04 m.
Area projection in the x-plane = 0.12 m, y-plane = 1 m.

------------------------- Driver information --------------------------
A Fluid driver has been instantiated.

------------------------ Iteration Preprocessing ------------------------
Zone 1: Euler/Navier-Stokes/RANS flow iteration.

------------------------- Solver Preprocessing --------------------------
Inviscid flow: Computing density based on free-stream
temperature and pressure using the ideal gas law.
Force coefficients computed using free-stream values.
-- Input conditions:
Fluid Model: STANDARD_AIR 
Specific gas constant: 287.058 N.m/kg.K.
Specific gas constant (non-dim): 1
Specific Heat Ratio: 1.4
Free-stream static pressure: 101325 Pa.
Free-stream total pressure: 154454 Pa.
Free-stream temperature: 288.15 K.
Free-stream density: 1.22498 kg/m^3.
Free-stream velocity: (272.173, 5.93883) m/s. Magnitude: 272.238 m/s (529.186 KTS).
Free-stream total energy per unit mass: 243846 m^2/s^2.
-- Reference values:
Reference specific gas constant: 287.058 N.m/kg.K.
Reference pressure: 101325 Pa.
Reference temperature: 288.15 K.
Reference density: 1.22498 kg/m^3.
Reference velocity: 287.603 m/s.
Reference energy per unit mass: 82715.8 m^2/s^2.
-- Resulting non-dimensional state:
Mach number (non-dim): 0.8
Specific gas constant (non-dim): 1
Free-stream temperature (non-dim): 1
Free-stream pressure (non-dim): 1
Free-stream density (non-dim): 1
Free-stream velocity (non-dim): (0.946348, 0.0206494). Magnitude: 0.946573
Free-stream total energy per unit mass (non-dim): 2.948

Initialize Jacobian structure (Euler). MG level: 0.
Initialize Jacobian structure (Euler). MG level: 1.
Initialize Jacobian structure (Euler). MG level: 2.
Initialize Jacobian structure (Euler). MG level: 3.

----------------- Integration and Numerics Preprocessing ----------------
Integration Preprocessing.
Numerics Preprocessing.

------------------------------ Begin Solver -----------------------------

---------------------- Local Time Stepping Summary ----------------------
MG level: 0 -> Min. DT: 0.000222347. Max. DT: 1.81142. CFL: 5.
MG level: 1 -> Min. DT: 0.000366695. Max. DT: 2.77083. CFL: 4.05935.
MG level: 2 -> Min. DT: 0.000500992. Max. DT: 3.70308. CFL: 3.27325.
MG level: 3 -> Min. DT: 0.000444761. Max. DT: 4.74021. CFL: 2.6081.
-------------------------------------------------------------------------

----------------------- Residual Evolution Summary ----------------------
log10[Maximum residual]: -2.57874.
Maximum residual point 97, located at (0.00056, -0.00417316).
-------------------------------------------------------------------------

 Iter    Time(s)     Res[Rho]     Res[RhoE]      CL(Total)      CD(Total)
    0   0.180281    -3.585391     -2.989014       0.114015       0.100685
    1   0.177598    -3.463028     -2.843018       0.152683       0.053252
    2   0.176634    -3.642492     -3.057188       0.191243       0.039597
    3   0.176066    -3.659044     -3.091471       0.221027       0.031410
    4   0.175792    -3.701585     -3.141013       0.250265       0.026956
    5   0.175701    -3.728323     -3.181305       0.276570       0.024428
    6   0.175582    -3.745712     -3.201319       0.298406       0.023058
    7   0.175390    -3.786022     -3.238778       0.315249       0.022394
    8   0.175228    -3.845750     -3.304434       0.327415       0.022136
    9   0.175251    -3.897701     -3.370610       0.335654       0.022101
   10   0.175142    -3.929658     -3.409938       0.340808       0.022170
   11   0.175093    -3.962161     -3.442037       0.343721       0.022268
   12   0.175105    -4.005726     -3.486573       0.345126       0.022353
   13   0.175030    -4.056577     -3.543552       0.345592       0.022405
   14   0.174964    -4.108896     -3.603986       0.345483       0.022421
   15   0.174925    -4.160366     -3.660833       0.345023       0.022410
   16   0.174927    -4.211627     -3.714374       0.344370       0.022388
   17   0.174938    -4.266307     -3.770010       0.343622       0.022363
   18   0.174900    -4.322813     -3.827157       0.342816       0.022335
   19   0.174912    -4.375811     -3.881631       0.341996       0.022304
   20   0.174882    -4.423660     -3.932134       0.341195       0.022271
   21   0.174844    -4.468169     -3.979764       0.340433       0.022234
   22   0.174854    -4.510800     -4.025311       0.339729       0.022193
   23   0.174884    -4.553189     -4.070466       0.339086       0.022147
   24   0.174848    -4.596764     -4.116621       0.338500       0.022099
   25   0.174816    -4.642429     -4.164601       0.337963       0.022051
   26   0.174829    -4.690850     -4.214643       0.337464       0.022005
   27   0.174800    -4.741259     -4.265554       0.336993       0.021964
   28   0.174777    -4.793001     -4.316952       0.336543       0.021928
   29   0.174818    -4.844716     -4.367348       0.336108       0.021898
   30   0.174788    -4.895059     -4.415769       0.335683       0.021874
   31   0.174765    -4.942862     -4.461524       0.335267       0.021854
   32   0.174740    -4.987147     -4.504055       0.334859       0.021837
   33   0.174748    -5.027350     -4.543086       0.334458       0.021821
   34   0.174744    -5.063847     -4.579143       0.334070       0.021805
   35   0.174729    -5.097571     -4.613155       0.333702       0.021789
   36   0.174731    -5.129536     -4.645995       0.333356       0.021772
   37   0.174715    -5.160383     -4.677997       0.333033       0.021754
   38   0.174704    -5.190025     -4.708778       0.332731       0.021734
   39   0.174691    -5.218725     -4.738550       0.332450       0.021713

---------------------- Local Time Stepping Summary ----------------------
MG level: 0 -> Min. DT: 0.000246799. Max. DT: 1.81147. CFL: 5.
MG level: 1 -> Min. DT: 0.00038934. Max. DT: 2.76952. CFL: 4.05935.
MG level: 2 -> Min. DT: 0.000518388. Max. DT: 3.70196. CFL: 3.27325.
MG level: 3 -> Min. DT: 0.000457067. Max. DT: 4.74284. CFL: 2.6081.
-------------------------------------------------------------------------

----------------------- Residual Evolution Summary ----------------------
log10[Maximum residual]: -4.2224.
Maximum residual point 1299, located at (0.568722, -0.163727).
-------------------------------------------------------------------------

 Iter    Time(s)     Res[Rho]     Res[RhoE]      CL(Total)      CD(Total)
   40   0.174738    -5.246577     -4.767235       0.332188       0.021693
   41   0.174727    -5.273296     -4.794406       0.331945       0.021673
   42   0.174812    -5.298688     -4.819926       0.331719       0.021653
   43   0.175143    -5.322792     -4.843941       0.331510       0.021635
   44   0.175240    -5.345731     -4.866699       0.331316       0.021617
   45   0.175217    -5.367624     -4.888447       0.331135       0.021601
   46   0.175211    -5.388609     -4.909441       0.330962       0.021587
   47   0.175298    -5.408902     -4.929991       0.330795       0.021573
   48   0.175279    -5.428714     -4.950378       0.330630       0.021560
   49   0.175254    -5.448388     -4.970937       0.330466       0.021549
   50   0.175261    -5.468287     -4.991973       0.330301       0.021538
   51   0.175267    -5.488645     -5.013531       0.330134       0.021528
   52   0.175282    -5.509811     -5.035917       0.329964       0.021518
   53   0.175293    -5.531957     -5.059229       0.329794       0.021508
   54   0.175294    -5.555133     -5.083320       0.329623       0.021499
   55   0.175281    -5.579199     -5.107870       0.329455       0.021491
   56   0.175277    -5.603807     -5.132437       0.329291       0.021482
   57   0.175268    -5.628454     -5.156535       0.329132       0.021474
   58   0.175244    -5.652517     -5.179628       0.328980       0.021467
   59   0.175232    -5.675503     -5.201421       0.328836       0.021460
   60   0.175212    -5.697175     -5.221951       0.328700       0.021453
   61   0.175241    -5.717555     -5.241480       0.328573       0.021446
   62   0.175235    -5.737661     -5.261255       0.328454       0.021440
   63   0.175238    -5.757578     -5.281025       0.328343       0.021434
   64   0.175221    -5.777008     -5.300570       0.328239       0.021428
   65   0.175242    -5.796398     -5.320561       0.328142       0.021423
   66   0.175230    -5.816268     -5.341419       0.328051       0.021417
   67   0.175241    -5.837186     -5.363577       0.327965       0.021412
   68   0.175278    -5.858998     -5.386591       0.327884       0.021407
   69   0.175301    -5.881748     -5.410427       0.327807       0.021403
   70   0.175304    -5.905305     -5.434875       0.327734       0.021398
   71   0.175303    -5.929451     -5.459689       0.327664       0.021394
   72   0.175324    -5.953887     -5.484538       0.327598       0.021390
   73   0.175306    -5.978327     -5.509135       0.327534       0.021386
   74   0.175429    -6.002531     -5.533281       0.327473       0.021382
   75   0.175625    -6.026215     -5.556742       0.327414       0.021378
   76   0.175742    -6.049217     -5.579454       0.327357       0.021375
   77   0.175837    -6.071518     -5.601485       0.327302       0.021372
   78   0.175937    -6.093228     -5.623007       0.327249       0.021368
   79   0.176022    -6.114549     -5.644284       0.327199       0.021365

---------------------- Local Time Stepping Summary ----------------------
MG level: 0 -> Min. DT: 0.000245993. Max. DT: 1.81147. CFL: 5.
MG level: 1 -> Min. DT: 0.000388148. Max. DT: 2.76954. CFL: 4.05935.
MG level: 2 -> Min. DT: 0.000517126. Max. DT: 3.70198. CFL: 3.27325.
MG level: 3 -> Min. DT: 0.000456083. Max. DT: 4.74281. CFL: 2.6081.
-------------------------------------------------------------------------

----------------------- Residual Evolution Summary ----------------------
log10[Maximum residual]: -4.98349.
Maximum residual point 545, located at (0.482064, -0.0845953).
-------------------------------------------------------------------------

 Iter    Time(s)     Res[Rho]     Res[RhoE]      CL(Total)      CD(Total)
   80   0.176108    -6.135686     -5.665530       0.327151       0.021363
   81   0.176155    -6.156857     -5.686924       0.327106       0.021360
   82   0.176149    -6.178311     -5.708687       0.327063       0.021358
   83   0.176176    -6.200247     -5.730979       0.327024       0.021355
   84   0.176234    -6.222834     -5.753922       0.326988       0.021353
   85   0.176235    -6.246220     -5.777616       0.326954       0.021351
   86   0.176247    -6.270470     -5.802062       0.326925       0.021350
   87   0.176260    -6.295587     -5.827226       0.326898       0.021348
   88   0.176270    -6.321534     -5.853057       0.326875       0.021347
   89   0.176339    -6.348260     -5.879520       0.326855       0.021346
   90   0.176404    -6.375727     -5.906614       0.326837       0.021345
   91   0.176469    -6.403831     -5.934258       0.326823       0.021344
   92   0.176531    -6.432486     -5.962420       0.326812       0.021343
   93   0.176593    -6.461633     -5.991101       0.326803       0.021343
   94   0.176654    -6.491246     -6.020318       0.326796       0.021342
   95   0.176701    -6.521305     -6.050070       0.326791       0.021342
   96   0.176761    -6.551728     -6.080276       0.326788       0.021342
   97   0.176816    -6.582368     -6.110784       0.326787       0.021342
   98   0.176876    -6.613104     -6.141496       0.326786       0.021342
   99   0.176941    -6.643768     -6.172226       0.326786       0.021342
  100   0.176999    -6.674193     -6.202775       0.326787       0.021342
  101   0.176992    -6.704208     -6.232946       0.326789       0.021342
  102   0.176992    -6.733635     -6.262534       0.326790       0.021342
  103   0.176976    -6.762330     -6.291399       0.326792       0.021342
  104   0.176971    -6.790217     -6.319469       0.326794       0.021342
  105   0.176954    -6.817246     -6.346674       0.326795       0.021342
  106   0.176928    -6.843500     -6.373110       0.326797       0.021343
  107   0.176973    -6.869031     -6.398824       0.326798       0.021343
  108   0.177021    -6.893937     -6.423921       0.326800       0.021343
  109   0.177062    -6.918379     -6.448562       0.326801       0.021343
  110   0.177100    -6.942498     -6.472913       0.326802       0.021343
  111   0.177139    -6.966407     -6.497094       0.326803       0.021343
  112   0.177187    -6.990265     -6.521245       0.326805       0.021343
  113   0.177176    -7.014236     -6.545516       0.326806       0.021343
  114   0.177148    -7.038414     -6.569987       0.326807       0.021343
  115   0.177119    -7.062873     -6.594721       0.326809       0.021343
  116   0.177095    -7.087680     -6.619772       0.326811       0.021343
  117   0.177093    -7.112865     -6.645140       0.326813       0.021344
  118   0.177069    -7.138425     -6.670791       0.326815       0.021344
  119   0.177051    -7.164325     -6.696663       0.326818       0.021344

---------------------- Local Time Stepping Summary ----------------------
MG level: 0 -> Min. DT: 0.000245895. Max. DT: 1.81147. CFL: 5.
MG level: 1 -> Min. DT: 0.000388004. Max. DT: 2.76954. CFL: 4.05935.
MG level: 2 -> Min. DT: 0.000517039. Max. DT: 3.70198. CFL: 3.27325.
MG level: 3 -> Min. DT: 0.000455985. Max. DT: 4.74281. CFL: 2.6081.
-------------------------------------------------------------------------

----------------------- Residual Evolution Summary ----------------------
log10[Maximum residual]: -5.93017.
Maximum residual point 297, located at (0.473222, -0.0689557).
-------------------------------------------------------------------------

 Iter    Time(s)     Res[Rho]     Res[RhoE]      CL(Total)      CD(Total)
  120   0.177028    -7.190476     -6.722644       0.326821       0.021344
  121   0.177005    -7.216734     -6.748570       0.326824       0.021344
  122   0.176985    -7.242951     -6.774293       0.326827       0.021344
  123   0.176979    -7.268844     -6.799539       0.326831       0.021344
  124   0.176963    -7.294172     -6.824096       0.326835       0.021345
  125   0.176942    -7.318504     -6.847505       0.326839       0.021345
  126   0.176917    -7.341421     -6.869392       0.326844       0.021345
  127   0.176892    -7.362429     -6.889337       0.326848       0.021345
  128   0.176867    -7.381193     -6.907127       0.326853       0.021345
  129   0.176845    -7.397471     -6.922597       0.326857       0.021346
  130   0.176836    -7.411225     -6.935785       0.326862       0.021346
  131   0.176825    -7.422624     -6.946908       0.326866       0.021346
  132   0.176803    -7.431998     -6.956303       0.326871       0.021346
  133   0.176790    -7.439799     -6.964394       0.326875       0.021347
  134   0.176821    -7.446541     -6.971653       0.326880       0.021347
  135   0.176851    -7.452745     -6.978553       0.326884       0.021347
  136   0.176886    -7.458881     -6.985512       0.326888       0.021347
  137   0.176917    -7.465376     -6.992910       0.326891       0.021347
  138   0.176954    -7.472564     -7.001036       0.326895       0.021348
  139   0.176938    -7.480751     -7.010174       0.326899       0.021348
  140   0.176926    -7.490125     -7.020480       0.326902       0.021348
  141   0.176914    -7.500801     -7.032052       0.326905       0.021348
  142   0.176891    -7.512848     -7.044949       0.326908       0.021348
  143   0.176886    -7.526300     -7.059197       0.326911       0.021348
  144   0.176887    -7.541149     -7.074780       0.326914       0.021349
  145   0.176871    -7.557358     -7.091656       0.326916       0.021349
  146   0.176881    -7.574869     -7.109763       0.326918       0.021349
  147   0.176870    -7.593611     -7.129033       0.326921       0.021349
  148   0.176850    -7.613503     -7.149381       0.326923       0.021349
  149   0.176850    -7.634458     -7.170721       0.326925       0.021349
  150   0.176854    -7.656388     -7.192967       0.326926       0.021349
  151   0.176836    -7.679208     -7.216034       0.326928       0.021349
  152   0.176816    -7.702839     -7.239846       0.326930       0.021349
  153   0.176803    -7.727208     -7.264333       0.326931       0.021350
  154   0.176784    -7.752254     -7.289439       0.326933       0.021350
  155   0.176764    -7.777926     -7.315118       0.326934       0.021350
  156   0.176754    -7.804190     -7.341342       0.326935       0.021350
  157   0.176738    -7.831026     -7.368098       0.326936       0.021350
  158   0.176732    -7.858416     -7.395370       0.326937       0.021350
  159   0.176721    -7.886367     -7.423176       0.326938       0.021350

---------------------- Local Time Stepping Summary ----------------------
MG level: 0 -> Min. DT: 0.000245899. Max. DT: 1.81147. CFL: 5.
MG level: 1 -> Min. DT: 0.000388007. Max. DT: 2.76954. CFL: 4.05935.
MG level: 2 -> Min. DT: 0.000517046. Max. DT: 3.70198. CFL: 3.27325.
MG level: 3 -> Min. DT: 0.000455985. Max. DT: 4.74281. CFL: 2.6081.
-------------------------------------------------------------------------

----------------------- Residual Evolution Summary ----------------------
log10[Maximum residual]: -6.67279.
Maximum residual point 381, located at (0.629983, 0.0569728).
-------------------------------------------------------------------------

 Iter    Time(s)     Res[Rho]     Res[RhoE]      CL(Total)      CD(Total)
  160   0.176719    -7.914906     -7.451553       0.326939       0.021350
  161   0.176725    -7.944074     -7.480549       0.326939       0.021350
  162   0.176713    -7.973917     -7.510213       0.326940       0.021350
  163   0.176704    -8.004488     -7.540605       0.326941       0.021350
  164   0.176733    -8.035849     -7.571787       0.326941       0.021350
  165   0.176784    -8.068060     -7.603825       0.326941       0.021350
  166   0.176800    -8.101186     -7.636780       0.326942       0.021350
  167   0.176785    -8.135268     -7.670688       0.326942       0.021350
  168   0.176777    -8.170335     -7.705576       0.326942       0.021350
  169   0.176760    -8.206397     -7.741447       0.326942       0.021350
  170   0.176752    -8.243431     -7.778265       0.326942       0.021350
  171   0.176744    -8.281362     -7.815943       0.326942       0.021350
  172   0.176737    -8.320049     -7.854321       0.326942       0.021350
  173   0.176730    -8.359268     -7.893157       0.326942       0.021350
  174   0.176722    -8.398690     -7.932103       0.326942       0.021350
  175   0.176734    -8.437865     -7.970691       0.326942       0.021350
  176   0.176736    -8.476210     -8.008328       0.326942       0.021350
  177   0.176782    -8.513015     -8.044301       0.326942       0.021350
  178   0.176791    -8.547479     -8.077829       0.326942       0.021350
  179   0.176779    -8.578785     -8.108134       0.326941       0.021350
  180   0.176777    -8.606208     -8.134554       0.326941       0.021350
  181   0.176769    -8.629242     -8.156657       0.326941       0.021350
  182   0.176754    -8.647701     -8.174328       0.326941       0.021350
  183   0.176740    -8.661759     -8.187791       0.326940       0.021350
  184   0.176734    -8.671901     -8.197554       0.326940       0.021350
  185   0.176739    -8.678825     -8.204309       0.326940       0.021350
  186   0.176766    -8.683319     -8.208815       0.326940       0.021350
  187   0.176809    -8.686148     -8.211803       0.326939       0.021350
  188   0.176835    -8.687995     -8.213914       0.326939       0.021350
  189   0.176820    -8.689418     -8.215676       0.326939       0.021350
  190   0.176808    -8.690855     -8.217500       0.326939       0.021350
  191   0.176807    -8.692631     -8.219690       0.326938       0.021350
  192   0.176798    -8.694977     -8.222468       0.326938       0.021350
  193   0.176784    -8.698052     -8.225982       0.326938       0.021350
  194   0.176779    -8.701963     -8.230335       0.326938       0.021350
  195   0.176765    -8.706774     -8.235587       0.326937       0.021350
  196   0.176750    -8.712524     -8.241776       0.326937       0.021350
  197   0.176741    -8.719230     -8.248921       0.326937       0.021350
  198   0.176732    -8.726900     -8.257027       0.326937       0.021350
  199   0.176718    -8.735532     -8.266093       0.326936       0.021350

---------------------- Local Time Stepping Summary ----------------------
MG level: 0 -> Min. DT: 0.000245899. Max. DT: 1.81147. CFL: 5.
MG level: 1 -> Min. DT: 0.000388006. Max. DT: 2.76954. CFL: 4.05935.
MG level: 2 -> Min. DT: 0.000517043. Max. DT: 3.70198. CFL: 3.27325.
MG level: 3 -> Min. DT: 0.000455984. Max. DT: 4.74281. CFL: 2.6081.
-------------------------------------------------------------------------

----------------------- Residual Evolution Summary ----------------------
log10[Maximum residual]: -7.47555.
Maximum residual point 381, located at (0.629983, 0.0569728).
-------------------------------------------------------------------------

 Iter    Time(s)     Res[Rho]     Res[RhoE]      CL(Total)      CD(Total)
  200   0.176711    -8.745120     -8.276114       0.326936       0.021350
  201   0.176735    -8.755656     -8.287082       0.326936       0.021350
  202   0.176765    -8.767132     -8.298986       0.326936       0.021350
  203   0.176794    -8.779536     -8.311818       0.326936       0.021350
  204   0.176785    -8.792862     -8.325569       0.326935       0.021350
  205   0.176784    -8.807101     -8.340228       0.326935       0.021350
  206   0.176826    -8.822245     -8.355787       0.326935       0.021350
  207   0.176826    -8.838287     -8.372239       0.326935       0.021350
  208   0.176827    -8.855220     -8.389573       0.326935       0.021350
  209   0.176826    -8.873038     -8.407783       0.326935       0.021350
  210   0.176821    -8.891733     -8.426860       0.326935       0.021350
  211   0.176817    -8.911299     -8.446795       0.326934       0.021350
  212   0.176838    -8.931727     -8.467577       0.326934       0.021350
  213   0.176828    -8.953010     -8.489198       0.326934       0.021350
  214   0.176816    -8.975138     -8.511647       0.326934       0.021350
  215   0.176818    -8.998103     -8.534911       0.326934       0.021350
  216   0.176816    -9.021894     -8.558979       0.326934       0.021350
  217   0.176803    -9.046498     -8.583837       0.326934       0.021350
  218   0.176811    -9.071905     -8.609470       0.326934       0.021350
  219   0.176815    -9.098102     -8.635865       0.326934       0.021350
  220   0.176804    -9.125074     -8.663005       0.326934       0.021350
  221   0.176795    -9.152807     -8.690874       0.326934       0.021350
  222   0.176782    -9.181287     -8.719455       0.326934       0.021350
  223   0.176769    -9.210496     -8.748731       0.326934       0.021350
  224   0.176759    -9.240420     -8.778683       0.326934       0.021350
  225   0.176747    -9.271041     -8.809295       0.326934       0.021350
  226   0.176740    -9.302341     -8.840546       0.326933       0.021350
  227   0.176742    -9.334301     -8.872417       0.326933       0.021350
  228   0.176747    -9.366902     -8.904888       0.326933       0.021350
  229   0.176740    -9.400121     -8.937937       0.326933       0.021350
  230   0.176729    -9.433937     -8.971542       0.326933       0.021350
  231   0.176719    -9.468323     -9.005675       0.326933       0.021350
  232   0.176713    -9.503249     -9.040308       0.326933       0.021350
  233   0.176701    -9.538681     -9.075409       0.326933       0.021350
  234   0.176688    -9.574579     -9.110936       0.326933       0.021350
  235   0.176678    -9.610893     -9.146842       0.326933       0.021350
  236   0.176668    -9.647565     -9.183070       0.326933       0.021350
  237   0.176680    -9.684521     -9.219545       0.326933       0.021350
  238   0.176689    -9.721671     -9.256180       0.326933       0.021350
  239   0.176712    -9.758903     -9.292864       0.326933       0.021350

---------------------- Local Time Stepping Summary ----------------------
MG level: 0 -> Min. DT: 0.000245898. Max. DT: 1.81147. CFL: 5.
MG level: 1 -> Min. DT: 0.000388006. Max. DT: 2.76954. CFL: 4.05935.
MG level: 2 -> Min. DT: 0.000517043. Max. DT: 3.70198. CFL: 3.27325.
MG level: 3 -> Min. DT: 0.000455984. Max. DT: 4.74281. CFL: 2.6081.
-------------------------------------------------------------------------

----------------------- Residual Evolution Summary ----------------------
log10[Maximum residual]: -8.62948.
Maximum residual point 381, located at (0.629983, 0.0569728).
-------------------------------------------------------------------------

 Iter    Time(s)     Res[Rho]     Res[RhoE]      CL(Total)      CD(Total)
  240   0.176704    -9.796082     -9.329462       0.326933       0.021350
  241   0.176694    -9.833039     -9.365808       0.326933       0.021350
  242   0.176684    -9.869577     -9.401703       0.326933       0.021350
  243   0.176676    -9.905459     -9.436916       0.326933       0.021350
  244   0.176673    -9.940413     -9.471178       0.326933       0.021350
  245   0.176672    -9.974135     -9.504191       0.326933       0.021350
  246   0.176660   -10.006300     -9.535638       0.326933       0.021350
  247   0.176652   -10.036575     -9.565198       0.326933       0.021350
  248   0.176643   -10.064643     -9.592570       0.326933       0.021350
  249   0.176637   -10.090229     -9.617496       0.326933       0.021350
  250   0.176629   -10.113128     -9.639790       0.326933       0.021350

-------------------------- File Output Summary --------------------------
Writing comma-separated values (CSV) surface files.
Merging connectivities in the Master node.
Merging coordinates in the Master node.
Merging solution in the Master node.
Writing SU2 native restart file.
Writing Paraview ASCII volume solution file.
Writing Paraview ASCII surface solution file.
Writing the forces breakdown file.
-------------------------------------------------------------------------

  251   0.176951   -10.133231     -9.659359       0.326933       0.021350
  252   0.176946   -10.150531     -9.676214       0.326933       0.021350
  253   0.176934   -10.165133     -9.690469       0.326933       0.021350
  254   0.176927   -10.177236     -9.702326       0.326933       0.021350
  255   0.176916   -10.187110     -9.712057       0.326933       0.021350
  256   0.176906   -10.195074     -9.719974       0.326933       0.021350

-------------------------- File Output Summary --------------------------
Writing comma-separated values (CSV) surface files.
Merging connectivities in the Master node.
Merging coordinates in the Master node.
Merging solution in the Master node.
Writing SU2 native restart file.
Writing Paraview ASCII volume solution file.
Writing Paraview ASCII surface solution file.
Writing the forces breakdown file.
-------------------------------------------------------------------------

History file, closed.

------------------------- Solver Postprocessing -------------------------
Deleted CNumerics container.
Deleted CIntegration container.
Deleted CSolver container.
Deleted CIteration container.
Deleted CInterpolator container.
Deleted CTransfer container.
Deleted CGeometry container.
Deleted CFreeFormDefBox class.
Deleted CSurfaceMovement class.
Deleted CVolumetricMovement class.
Deleted CConfig container.
Deleted COutput class.
-------------------------------------------------------------------------

Completed in 45.561646 seconds on 1 core.

------------------------- Exit Success (SU2_CFD) ------------------------

