
-------------------------------------------------------------------------
|    ___ _   _ ___                                                      |
|   / __| | | |_  )   Release 5.0.0  "Raven"                            |
|   \__ \ |_| |/ /                                                      |
|   |___/\___//___|   Suite (Computational Fluid Dynamics Code)         |
|                                                                       |
-------------------------------------------------------------------------
| SU2 Original Developers: Dr. Francisco D. Palacios.                   |
|                          Dr. Thomas D. Economon.                      |
-------------------------------------------------------------------------
| SU2 Developers:                                                       |
| - Prof. Juan J. Alonso's group at Stanford University.                |
| - Prof. Piero Colonna's group at Delft University of Technology.      |
| - Prof. Nicolas R. Gauger's group at Kaiserslautern U. of Technology. |
| - Prof. Alberto Guardone's group at Polytechnic University of Milan.  |
| - Prof. Rafael Palacios' group at Imperial College London.            |
| - Prof. Edwin van der Weide's group at the University of Twente.      |
| - Prof. Vincent Terrapon's group at the University of Liege.          |
-------------------------------------------------------------------------
| Copyright (C) 2012-2017 SU2, the open-source CFD code.                |
|                                                                       |
| SU2 is free software; you can redistribute it and/or                  |
| modify it under the terms of the GNU Lesser General Public            |
| License as published by the Free Software Foundation; either          |
| version 2.1 of the License, or (at your option) any later version.    |
|                                                                       |
| SU2 is distributed in the hope that it will be useful,                |
| but WITHOUT ANY WARRANTY; without even the implied warranty of        |
| MERCHANTABILITY or FITNESS FOR A PARTICULAR PURPOSE. See the GNU      |
| Lesser General Public License for more details.                       |
|                                                                       |
| You should have received a copy of the GNU Lesser General Public      |
| License along with SU2. If not, see <http://www.gnu.org/licenses/>.   |
-------------------------------------------------------------------------

------------------------ Physical Case Definition -----------------------
Compressible Euler equations.
Mach number: 0.8.
Angle of attack (AoA): 1.25 deg, and angle of sideslip (AoS): 0 deg.
No restart solution, use the values at infinity (freestream).
Non-Dimensional simulation (P=1.0, Rho=1.0, T=1.0 at the farfield).
The reference length/area (force coefficient) is 1.
The reference length (moment computation) is 1.
Reference origin (moment computation) is (0.25, 0, 0).
Surface(s) where the force coefficients are evaluated: airfoil.
Surface(s) where the objective function is evaluated: airfoil.
Surface(s) plotted in the output file: airfoil.
Surface(s) affected by the design variables: airfoil.
Input mesh file name: mesh_NACA0012_inv_deform.su2

---------------------- Space Numerical Integration ----------------------
Jameson-Schmidt-Turkel scheme for the flow inviscid terms.
JST viscous coefficients (1st, 2nd & 4th): 0.15, 0.5, 0.02.
The method includes a grid stretching correction (p = 0.3).
Second order integration.
Gradient Computation using weighted Least-Squares method.

---------------------- Time Numerical Integration -----------------------
Local time stepping (steady state simulation).
Euler implicit method for the flow equations.
W Multigrid Cycle, with 3 multigrid levels.
Damping factor for the residual restriction: 1.
Damping factor for the correction prolongation: 1.
No CFL adaptation.
Multigrid Level:                       0     1     2     3
Courant-Friedrichs-Lewy number:        5
MG PreSmooth coefficients:             1     2     3     3
MG PostSmooth coefficients:            0     0     0     0
MG CorrecSmooth coefficients:          0     0     0     0

------------------------- Convergence Criteria --------------------------
Maximum number of iterations: 2000.
Cauchy criteria for Drag using 100 elements and epsilon 1e-06.
Start convergence criteria at iteration 10.

-------------------------- Output Information ---------------------------
Writing a flow solution every 250 iterations.
Writing the convergence history every 1 iterations.
The output file format is Paraview ASCII (.vtk).
Convergence history file name: history_direct.
Forces breakdown file name: forces_breakdown.dat.
Surface flow coefficients file name: surface_flow.
Flow variables file name: flow.
Restart flow file name: restart_flow.dat.

------------------- Config File Boundary Information --------------------
Euler wall boundary marker(s): airfoil.
Far-field boundary marker(s): farfield.

---------------------- Read Grid File Information -----------------------
Two dimensional problem.
5233 points.
2 surface markers.
200 boundary elements in index 0 (Marker = airfoil).
50 boundary elements in index 1 (Marker = farfield).
10216 triangles.

------------------------- Geometry Preprocessing ------------------------
Setting point connectivity.
Renumbering points (Reverse Cuthill McKee Ordering).
Recomputing point connectivity.
Setting element connectivity.
Checking the numerical grid orientation.
Identifying edges and vertices.
Computing centers of gravity.
Setting the control volume structure.
Area of the computational grid: 1.25e+03.
Searching for the closest normal neighbors to the surfaces.
Compute the surface curvature.
Max K: 7.84e+03. Mean K: 34.9. Standard deviation K: 494.
Checking for periodicity.
Setting the multigrid structure.
MG level: 0 -> CVs: 5233. Agglomeration rate 1/1.00. CFL 5.
MG level: 1 -> CVs: 1533. Agglomeration rate 1/3.41. CFL 4.06.
MG level: 2 -> CVs: 443. Agglomeration rate 1/3.46. CFL 3.27.
MG level: 3 -> CVs: 125. Agglomeration rate 1/3.54. CFL 2.61.
Computing wall distances.
Wetted area = 2.04 m.
Area projection in the x-plane = 0.115 m, y-plane = 1 m.

------------------------- Driver information --------------------------
A Fluid driver has been instantiated.

------------------------ Iteration Preprocessing ------------------------
Zone 1: Euler/Navier-Stokes/RANS flow iteration.

------------------------- Solver Preprocessing --------------------------
Inviscid flow: Computing density based on free-stream
temperature and pressure using the ideal gas law.
Force coefficients computed using free-stream values.
-- Input conditions:
Fluid Model: STANDARD_AIR 
Specific gas constant: 287.058 N.m/kg.K.
Specific gas constant (non-dim): 1
Specific Heat Ratio: 1.4
Free-stream static pressure: 101325 Pa.
Free-stream total pressure: 154454 Pa.
Free-stream temperature: 288.15 K.
Free-stream density: 1.22498 kg/m^3.
Free-stream velocity: (272.173, 5.93883) m/s. Magnitude: 272.238 m/s (529.186 KTS).
Free-stream total energy per unit mass: 243846 m^2/s^2.
-- Reference values:
Reference specific gas constant: 287.058 N.m/kg.K.
Reference pressure: 101325 Pa.
Reference temperature: 288.15 K.
Reference density: 1.22498 kg/m^3.
Reference velocity: 287.603 m/s.
Reference energy per unit mass: 82715.8 m^2/s^2.
-- Resulting non-dimensional state:
Mach number (non-dim): 0.8
Specific gas constant (non-dim): 1
Free-stream temperature (non-dim): 1
Free-stream pressure (non-dim): 1
Free-stream density (non-dim): 1
Free-stream velocity (non-dim): (0.946348, 0.0206494). Magnitude: 0.946573
Free-stream total energy per unit mass (non-dim): 2.948

Initialize Jacobian structure (Euler). MG level: 0.
Initialize Jacobian structure (Euler). MG level: 1.
Initialize Jacobian structure (Euler). MG level: 2.
Initialize Jacobian structure (Euler). MG level: 3.

----------------- Integration and Numerics Preprocessing ----------------
Integration Preprocessing.
Numerics Preprocessing.

------------------------------ Begin Solver -----------------------------

---------------------- Local Time Stepping Summary ----------------------
MG level: 0 -> Min. DT: 0.000222541. Max. DT: 1.81239. CFL: 5.
MG level: 1 -> Min. DT: 0.000367111. Max. DT: 2.77173. CFL: 4.05935.
MG level: 2 -> Min. DT: 0.000501739. Max. DT: 3.70438. CFL: 3.27325.
MG level: 3 -> Min. DT: 0.00044547. Max. DT: 4.74189. CFL: 2.6081.
-------------------------------------------------------------------------

----------------------- Residual Evolution Summary ----------------------
log10[Maximum residual]: -2.57577.
Maximum residual point 97, located at (0.00056, -0.00419481).
-------------------------------------------------------------------------

 Iter    Time(s)     Res[Rho]     Res[RhoE]      CL(Total)      CD(Total)
    0   0.188018    -3.603376     -3.006999       0.104978       0.094168
    1   0.186158    -3.483110     -2.863443       0.143862       0.048712
    2   0.186100    -3.661967     -3.076494       0.180532       0.034257
    3   0.186148    -3.678134     -3.110095       0.209950       0.025219
    4   0.186080    -3.721822     -3.160056       0.238996       0.019819
    5   0.186019    -3.748695     -3.200078       0.265640       0.016343
    6   0.185897    -3.764990     -3.218550       0.288216       0.014052
    7   0.185715    -3.805641     -3.255714       0.306190       0.012590
    8   0.185560    -3.868469     -3.323650       0.319928       0.011727
    9   0.185577    -3.924526     -3.393276       0.330156       0.011309
   10   0.185412    -3.957922     -3.433127       0.337587       0.011205
   11   0.185321    -3.989367     -3.462780       0.342855       0.011298
   12   0.185222    -4.031639     -3.504861       0.346524       0.011489
   13   0.185262    -4.079327     -3.558284       0.349037       0.011710
   14   0.185361    -4.125487     -3.613302       0.350695       0.011919
   15   0.185457    -4.168847     -3.663196       0.351671       0.012091
   16   0.185371    -4.212491     -3.709588       0.352056       0.012213
   17   0.185266    -4.258889     -3.757350       0.351914       0.012280
   18   0.185203    -4.307927     -3.808527       0.351335       0.012297
   19   0.185137    -4.358224     -3.861951       0.350418       0.012271
   20   0.185068    -4.409044     -3.915903       0.349274       0.012213
   21   0.184984    -4.460194     -3.969404       0.348007       0.012134
   22   0.184952    -4.509847     -4.020357       0.346705       0.012044
   23   0.184939    -4.557135     -4.068567       0.345438       0.011955
   24   0.184907    -4.601167     -4.113736       0.344256       0.011872
   25   0.184944    -4.642402     -4.156672       0.343193       0.011803
   26   0.184975    -4.681984     -4.198299       0.342265       0.011747
   27   0.185000    -4.721094     -4.239442       0.341474       0.011703
   28   0.184987    -4.760599     -4.280652       0.340806       0.011672
   29   0.184953    -4.800271     -4.321500       0.340246       0.011649
   30   0.184926    -4.839935     -4.362052       0.339770       0.011632
   31   0.184870    -4.879676     -4.402545       0.339353       0.011620
   32   0.184814    -4.919823     -4.443412       0.338974       0.011609
   33   0.184793    -4.960234     -4.484286       0.338614       0.011597
   34   0.184796    -5.000982     -4.525504       0.338261       0.011585
   35   0.184813    -5.042018     -4.567047       0.337908       0.011571
   36   0.184807    -5.082812     -4.607993       0.337556       0.011556
   37   0.184797    -5.123225     -4.648341       0.337206       0.011539
   38   0.184808    -5.162500     -4.687246       0.336861       0.011521
   39   0.184788    -5.200519     -4.724602       0.336524       0.011503

---------------------- Local Time Stepping Summary ----------------------
MG level: 0 -> Min. DT: 0.00024749. Max. DT: 1.8124. CFL: 5.
MG level: 1 -> Min. DT: 0.000390331. Max. DT: 2.77036. CFL: 4.05935.
MG level: 2 -> Min. DT: 0.000519558. Max. DT: 3.70324. CFL: 3.27325.
MG level: 3 -> Min. DT: 0.000457863. Max. DT: 4.74472. CFL: 2.6081.
-------------------------------------------------------------------------

----------------------- Residual Evolution Summary ----------------------
log10[Maximum residual]: -4.13373.
Maximum residual point 616, located at (0.638842, 0.0731771).
-------------------------------------------------------------------------

 Iter    Time(s)     Res[Rho]     Res[RhoE]      CL(Total)      CD(Total)
   40   0.184761    -5.236226     -4.759204       0.336196       0.011485
   41   0.184763    -5.269068     -4.790958       0.335880       0.011466
   42   0.184762    -5.299106     -4.820122       0.335578       0.011448
   43   0.184756    -5.326364     -4.846698       0.335288       0.011431
   44   0.184730    -5.351261     -4.871258       0.335012       0.011415
   45   0.184713    -5.374048     -4.894063       0.334748       0.011399
   46   0.184711    -5.394971     -4.915349       0.334494       0.011385
   47   0.184729    -5.414970     -4.936158       0.334250       0.011372
   48   0.184779    -5.434258     -4.956464       0.334014       0.011360
   49   0.184838    -5.453086     -4.976570       0.333786       0.011348
   50   0.184864    -5.471677     -4.996603       0.333565       0.011338
   51   0.184777    -5.490496     -5.016885       0.333352       0.011328
   52   0.184645    -5.509979     -5.037646       0.333145       0.011319
   53   0.184459    -5.530422     -5.058984       0.332947       0.011310
   54   0.184286    -5.551742     -5.080689       0.332756       0.011302
   55   0.184124    -5.573599     -5.102446       0.332573       0.011295
   56   0.183957    -5.595601     -5.123992       0.332398       0.011288
   57   0.183820    -5.617455     -5.145223       0.332231       0.011282
   58   0.183692    -5.638974     -5.166143       0.332072       0.011276
   59   0.183546    -5.660076     -5.186857       0.331920       0.011270
   60   0.183420    -5.680840     -5.207570       0.331776       0.011265
   61   0.183278    -5.701453     -5.228516       0.331639       0.011259
   62   0.183144    -5.722233     -5.250016       0.331508       0.011254
   63   0.183056    -5.743469     -5.272240       0.331382       0.011249
   64   0.182933    -5.765064     -5.294790       0.331262       0.011244
   65   0.182807    -5.787245     -5.317911       0.331146       0.011239
   66   0.182688    -5.809968     -5.341623       0.331035       0.011234
   67   0.182567    -5.833250     -5.365853       0.330928       0.011229
   68   0.182457    -5.857055     -5.390387       0.330825       0.011224
   69   0.182380    -5.881269     -5.414997       0.330725       0.011219
   70   0.182279    -5.905646     -5.439414       0.330629       0.011214
   71   0.182177    -5.929812     -5.463294       0.330535       0.011209
   72   0.182082    -5.953405     -5.486376       0.330444       0.011205
   73   0.181980    -5.976139     -5.508478       0.330355       0.011200
   74   0.181897    -5.997811     -5.529483       0.330269       0.011196
   75   0.181819    -6.018373     -5.549460       0.330185       0.011192
   76   0.181734    -6.037876     -5.568545       0.330103       0.011188
   77   0.181645    -6.056493     -5.586946       0.330024       0.011185
   78   0.181554    -6.074456     -5.604898       0.329947       0.011181
   79   0.181470    -6.092011     -5.622628       0.329872       0.011178

---------------------- Local Time Stepping Summary ----------------------
MG level: 0 -> Min. DT: 0.000246632. Max. DT: 1.8124. CFL: 5.
MG level: 1 -> Min. DT: 0.000389078. Max. DT: 2.77039. CFL: 4.05935.
MG level: 2 -> Min. DT: 0.000518238. Max. DT: 3.70326. CFL: 3.27325.
MG level: 3 -> Min. DT: 0.000456881. Max. DT: 4.74467. CFL: 2.6081.
-------------------------------------------------------------------------

----------------------- Residual Evolution Summary ----------------------
log10[Maximum residual]: -4.92123.
Maximum residual point 1002, located at (0.642567, 0.109577).
-------------------------------------------------------------------------

 Iter    Time(s)     Res[Rho]     Res[RhoE]      CL(Total)      CD(Total)
   80   0.181412    -6.109452     -5.640395       0.329801       0.011175
   81   0.181340    -6.127034     -5.658386       0.329732       0.011172
   82   0.181261    -6.144894     -5.676658       0.329667       0.011169
   83   0.181199    -6.163557     -5.695771       0.329605       0.011166
   84   0.181120    -6.184535     -5.717216       0.329546       0.011164
   85   0.181044    -6.205676     -5.738052       0.329491       0.011162
   86   0.181003    -6.226610     -5.758628       0.329440       0.011159
   87   0.180940    -6.247440     -5.779277       0.329392       0.011157
   88   0.180870    -6.268490     -5.800355       0.329347       0.011155
   89   0.180805    -6.289649     -5.821617       0.329305       0.011154
   90   0.180735    -6.310957     -5.843119       0.329267       0.011152
   91   0.180673    -6.332492     -5.864952       0.329231       0.011150
   92   0.180626    -6.354378     -5.887244       0.329198       0.011149
   93   0.180564    -6.376737     -5.910104       0.329166       0.011148
   94   0.180513    -6.399644     -5.933568       0.329137       0.011146
   95   0.180456    -6.423173     -5.957683       0.329110       0.011145
   96   0.180398    -6.447378     -5.982480       0.329084       0.011144
   97   0.180359    -6.472278     -6.007942       0.329060       0.011143
   98   0.180310    -6.497845     -6.034008       0.329036       0.011142
   99   0.180258    -6.524014     -6.060585       0.329013       0.011141
  100   0.180209    -6.550690     -6.087549       0.328991       0.011140
  101   0.180156    -6.577749     -6.114779       0.328970       0.011139
  102   0.180102    -6.604995     -6.142076       0.328950       0.011138
  103   0.180073    -6.632237     -6.169254       0.328930       0.011137
  104   0.180023    -6.659324     -6.196182       0.328911       0.011137
  105   0.179973    -6.686073     -6.222679       0.328893       0.011136
  106   0.179937    -6.712264     -6.248491       0.328876       0.011135
  107   0.179887    -6.737895     -6.273770       0.328859       0.011134
  108   0.179842    -6.762792     -6.298301       0.328844       0.011134
  109   0.179815    -6.787000     -6.322176       0.328829       0.011133
  110   0.179770    -6.810628     -6.345535       0.328816       0.011132
  111   0.179724    -6.833798     -6.368508       0.328804       0.011132
  112   0.179679    -6.856682     -6.391263       0.328792       0.011131
  113   0.179635    -6.879505     -6.414033       0.328783       0.011131
  114   0.179602    -6.902511     -6.437062       0.328774       0.011130
  115   0.179567    -6.925954     -6.460594       0.328766       0.011130
  116   0.179567    -6.950109     -6.484901       0.328760       0.011130
  117   0.179572    -6.975276     -6.510289       0.328755       0.011129
  118   0.179530    -7.001717     -6.537003       0.328751       0.011129
  119   0.179489    -7.029709     -6.565298       0.328747       0.011129

---------------------- Local Time Stepping Summary ----------------------
MG level: 0 -> Min. DT: 0.000246504. Max. DT: 1.8124. CFL: 5.
MG level: 1 -> Min. DT: 0.000388907. Max. DT: 2.77039. CFL: 4.05935.
MG level: 2 -> Min. DT: 0.000518135. Max. DT: 3.70327. CFL: 3.27325.
MG level: 3 -> Min. DT: 0.0004568. Max. DT: 4.74467. CFL: 2.6081.
-------------------------------------------------------------------------

----------------------- Residual Evolution Summary ----------------------
log10[Maximum residual]: -5.76568.
Maximum residual point 381, located at (0.629852, 0.0584006).
-------------------------------------------------------------------------

 Iter    Time(s)     Res[Rho]     Res[RhoE]      CL(Total)      CD(Total)
  120   0.179469    -7.059502     -6.595407       0.328745       0.011129
  121   0.179433    -7.091228     -6.627421       0.328743       0.011129
  122   0.179402    -7.125023     -6.661471       0.328743       0.011129
  123   0.179363    -7.160948     -6.697579       0.328742       0.011129
  124   0.179324    -7.199009     -6.735720       0.328743       0.011129
  125   0.179290    -7.239047     -6.775681       0.328744       0.011129
  126   0.179275    -7.280809     -6.817194       0.328745       0.011129
  127   0.179243    -7.323847     -6.859787       0.328746       0.011129
  128   0.179210    -7.367523     -6.902793       0.328748       0.011129
  129   0.179177    -7.411021     -6.945390       0.328750       0.011129
  130   0.179144    -7.453352     -6.986635       0.328752       0.011129
  131   0.179119    -7.493383     -7.025476       0.328754       0.011129
  132   0.179096    -7.530032     -7.060954       0.328756       0.011129
  133   0.179065    -7.562481     -7.092393       0.328759       0.011129
  134   0.179034    -7.590343     -7.119540       0.328761       0.011129
  135   0.179000    -7.613736     -7.142581       0.328763       0.011130
  136   0.178968    -7.633230     -7.162083       0.328765       0.011130
  137   0.178955    -7.649700     -7.178873       0.328767       0.011130
  138   0.178928    -7.664116     -7.193831       0.328769       0.011130
  139   0.178898    -7.677376     -7.207755       0.328771       0.011130
  140   0.178873    -7.690234     -7.221316       0.328773       0.011130
  141   0.178845    -7.703253     -7.235008       0.328775       0.011130
  142   0.178816    -7.716786     -7.249134       0.328777       0.011130
  143   0.178806    -7.731021     -7.263861       0.328779       0.011130
  144   0.178782    -7.746042     -7.279265       0.328781       0.011130
  145   0.178756    -7.761824     -7.295318       0.328782       0.011130
  146   0.178730    -7.778283     -7.311921       0.328784       0.011131
  147   0.178704    -7.795285     -7.328951       0.328786       0.011131
  148   0.178677    -7.812657     -7.346254       0.328787       0.011131
  149   0.178666    -7.830214     -7.363670       0.328789       0.011131
  150   0.178643    -7.847782     -7.381044       0.328791       0.011131
  151   0.178629    -7.865210     -7.398251       0.328792       0.011131
  152   0.178604    -7.882389     -7.415210       0.328794       0.011131
  153   0.178580    -7.899224     -7.431842       0.328795       0.011131
  154   0.178570    -7.915664     -7.448115       0.328797       0.011131
  155   0.178550    -7.931702     -7.464046       0.328798       0.011131
  156   0.178525    -7.947378     -7.479689       0.328800       0.011131
  157   0.178503    -7.962772     -7.495132       0.328801       0.011131
  158   0.178480    -7.978005     -7.510509       0.328802       0.011131
  159   0.178456    -7.993209     -7.525940       0.328803       0.011131

---------------------- Local Time Stepping Summary ----------------------
MG level: 0 -> Min. DT: 0.000246505. Max. DT: 1.8124. CFL: 5.
MG level: 1 -> Min. DT: 0.000388906. Max. DT: 2.77039. CFL: 4.05935.
MG level: 2 -> Min. DT: 0.000518139. Max. DT: 3.70326. CFL: 3.27325.
MG level: 3 -> Min. DT: 0.000456798. Max. DT: 4.74467. CFL: 2.6081.
-------------------------------------------------------------------------

----------------------- Residual Evolution Summary ----------------------
log10[Maximum residual]: -6.67222.
Maximum residual point 381, located at (0.629852, 0.0584006).
-------------------------------------------------------------------------

 Iter    Time(s)     Res[Rho]     Res[RhoE]      CL(Total)      CD(Total)
  160   0.178450    -8.008543     -7.541576       0.328804       0.011131
  161   0.178429    -8.024167     -7.557568       0.328805       0.011131
  162   0.178409    -8.040233     -7.574059       0.328806       0.011132
  163   0.178397    -8.056885     -7.591181       0.328807       0.011132
  164   0.178383    -8.074260     -7.609059       0.328808       0.011132
  165   0.178362    -8.092485     -7.627814       0.328809       0.011132
  166   0.178358    -8.111650     -7.647514       0.328809       0.011132
  167   0.178337    -8.131822     -7.668215       0.328810       0.011132
  168   0.178315    -8.153050     -7.689958       0.328811       0.011132
  169   0.178294    -8.175360     -7.712762       0.328811       0.011132
  170   0.178276    -8.198758     -7.736625       0.328812       0.011132
  171   0.178262    -8.223231     -7.761527       0.328812       0.011132
  172   0.178251    -8.248748     -7.787429       0.328813       0.011132
  173   0.178249    -8.275260     -7.814278       0.328813       0.011132
  174   0.178232    -8.302706     -7.842007       0.328814       0.011132
  175   0.178212    -8.331009     -7.870536       0.328814       0.011132
  176   0.178192    -8.360084     -7.899778       0.328814       0.011132
  177   0.178186    -8.389838     -7.929638       0.328815       0.011132
  178   0.178168    -8.420171     -7.960019       0.328815       0.011132
  179   0.178149    -8.450986     -7.990821       0.328815       0.011132
  180   0.178129    -8.482181     -8.021947       0.328815       0.011132
  181   0.178110    -8.513660     -8.053305       0.328816       0.011132
  182   0.178093    -8.545334     -8.084810       0.328816       0.011132
  183   0.178087    -8.577121     -8.116388       0.328816       0.011132
  184   0.178073    -8.608967     -8.147996       0.328816       0.011132
  185   0.178057    -8.640799     -8.179562       0.328816       0.011132
  186   0.178042    -8.672570     -8.211050       0.328817       0.011132
  187   0.178025    -8.704247     -8.242442       0.328817       0.011132
  188   0.178014    -8.735815     -8.273735       0.328817       0.011132
  189   0.178004    -8.767277     -8.304937       0.328817       0.011132
  190   0.177988    -8.798645     -8.336070       0.328817       0.011132
  191   0.177972    -8.829945     -8.367166       0.328817       0.011132
  192   0.177953    -8.861213     -8.398264       0.328817       0.011132
  193   0.177937    -8.892491     -8.429411       0.328817       0.011132
  194   0.177934    -8.923829     -8.460656       0.328817       0.011132
  195   0.177920    -8.955276     -8.492049       0.328817       0.011132
  196   0.177908    -8.986886     -8.523638       0.328818       0.011132
  197   0.177897    -9.018706     -8.555467       0.328818       0.011132
  198   0.177879    -9.050782     -8.587576       0.328818       0.011132
  199   0.177861    -9.083154     -8.619996       0.328818       0.011132

---------------------- Local Time Stepping Summary ----------------------
MG level: 0 -> Min. DT: 0.000246505. Max. DT: 1.8124. CFL: 5.
MG level: 1 -> Min. DT: 0.000388906. Max. DT: 2.77039. CFL: 4.05935.
MG level: 2 -> Min. DT: 0.000518139. Max. DT: 3.70326. CFL: 3.27325.
MG level: 3 -> Min. DT: 0.000456797. Max. DT: 4.74467. CFL: 2.6081.
-------------------------------------------------------------------------

----------------------- Residual Evolution Summary ----------------------
log10[Maximum residual]: -7.826.
Maximum residual point 381, located at (0.629852, 0.0584006).
-------------------------------------------------------------------------

 Iter    Time(s)     Res[Rho]     Res[RhoE]      CL(Total)      CD(Total)
  200   0.177857    -9.115854     -8.652752       0.328818       0.011132
  201   0.177844    -9.148907     -8.685857       0.328818       0.011132
  202   0.177831    -9.182330     -8.719319       0.328818       0.011132
  203   0.177814    -9.216129     -8.753130       0.328818       0.011132
  204   0.177799    -9.250300     -8.787274       0.328818       0.011132
  205   0.177783    -9.284829     -8.821723       0.328818       0.011132
  206   0.177777    -9.319688     -8.856434       0.328818       0.011132
  207   0.177762    -9.354833     -8.891348       0.328818       0.011132
  208   0.177750    -9.390203     -8.926386       0.328818       0.011132
  209   0.177735    -9.425717     -8.961449       0.328818       0.011132
  210   0.177720    -9.461263     -8.996410       0.328818       0.011132
  211   0.177715    -9.496700     -9.031113       0.328818       0.011132
  212   0.177705    -9.531845     -9.065363       0.328818       0.011132
  213   0.177694    -9.566473     -9.098930       0.328818       0.011132
  214   0.177681    -9.600309     -9.131541       0.328818       0.011132
  215   0.177668    -9.633027     -9.162889       0.328818       0.011132
  216   0.177655    -9.664261     -9.192640       0.328818       0.011132
  217   0.177653    -9.693616     -9.220450       0.328818       0.011132
  218   0.177643    -9.720699     -9.245994       0.328818       0.011132
  219   0.177630    -9.745155     -9.268998       0.328818       0.011132
  220   0.177621    -9.766707     -9.289271       0.328818       0.011132
  221   0.177610    -9.785198     -9.306729       0.328818       0.011132
  222   0.177598    -9.800618     -9.321420       0.328818       0.011132
  223   0.177596    -9.813113     -9.333515       0.328818       0.011132
  224   0.177583    -9.822963     -9.343292       0.328818       0.011132
  225   0.177570    -9.830553     -9.351104       0.328818       0.011132
  226   0.177558    -9.836327     -9.357349       0.328818       0.011132
  227   0.177545    -9.840747     -9.362432       0.328818       0.011132
  228   0.177537    -9.844258     -9.366741       0.328818       0.011132
  229   0.177529    -9.847262     -9.370629       0.328818       0.011132
  230   0.177520    -9.850109     -9.374402       0.328818       0.011132
  231   0.177513    -9.853091     -9.378319       0.328818       0.011132
  232   0.177501    -9.856442     -9.382589       0.328818       0.011132
  233   0.177489    -9.860344     -9.387378       0.328818       0.011132
  234   0.177488    -9.864937     -9.392812       0.328817       0.011132
  235   0.177476    -9.870321     -9.398987       0.328817       0.011132
  236   0.177465    -9.876566     -9.405967       0.328817       0.011132
  237   0.177453    -9.883717     -9.413798       0.328817       0.011132
  238   0.177441    -9.891799     -9.422505       0.328817       0.011132
  239   0.177430    -9.900823     -9.432100       0.328817       0.011132

---------------------- Local Time Stepping Summary ----------------------
MG level: 0 -> Min. DT: 0.000246505. Max. DT: 1.8124. CFL: 5.
MG level: 1 -> Min. DT: 0.000388906. Max. DT: 2.77039. CFL: 4.05935.
MG level: 2 -> Min. DT: 0.000518139. Max. DT: 3.70326. CFL: 3.27325.
MG level: 3 -> Min. DT: 0.000456797. Max. DT: 4.74467. CFL: 2.6081.
-------------------------------------------------------------------------

----------------------- Residual Evolution Summary ----------------------
log10[Maximum residual]: -8.60611.
Maximum residual point 381, located at (0.629852, 0.0584006).
-------------------------------------------------------------------------

 Iter    Time(s)     Res[Rho]     Res[RhoE]      CL(Total)      CD(Total)
  240   0.177430    -9.910785     -9.442583       0.328817       0.011132
  241   0.177422    -9.921676     -9.453947       0.328817       0.011132
  242   0.177416    -9.933476     -9.466177       0.328817       0.011132
  243   0.177409    -9.946165     -9.479256       0.328817       0.011132
  244   0.177398    -9.959717     -9.493163       0.328817       0.011132
  245   0.177391    -9.974107     -9.507874       0.328817       0.011132
  246   0.177385    -9.989307     -9.523369       0.328817       0.011132
  247   0.177375   -10.005291     -9.539623       0.328817       0.011132
  248   0.177363   -10.022036     -9.556618       0.328817       0.011132
  249   0.177352   -10.039517     -9.574333       0.328817       0.011132
  250   0.177341   -10.057716     -9.592752       0.328817       0.011132

-------------------------- File Output Summary --------------------------
Writing comma-separated values (CSV) surface files.
Merging connectivities in the Master node.
Merging coordinates in the Master node.
Merging solution in the Master node.
Writing SU2 native restart file.
Writing Paraview ASCII volume solution file.
Writing Paraview ASCII surface solution file.
Writing the forces breakdown file.
-------------------------------------------------------------------------

  251   0.177653   -10.076614     -9.611860       0.328817       0.011132
  252   0.177643   -10.096196     -9.631645       0.328817       0.011132
  253   0.177633   -10.116451     -9.652099       0.328817       0.011132
  254   0.177623   -10.137371     -9.673215       0.328817       0.011132
  255   0.177611   -10.158948     -9.694988       0.328817       0.011132

-------------------------- File Output Summary --------------------------
Writing comma-separated values (CSV) surface files.
Merging connectivities in the Master node.
Merging coordinates in the Master node.
Merging solution in the Master node.
Writing SU2 native restart file.
Writing Paraview ASCII volume solution file.
Writing Paraview ASCII surface solution file.
Writing the forces breakdown file.
-------------------------------------------------------------------------

History file, closed.

------------------------- Solver Postprocessing -------------------------
Deleted CNumerics container.
Deleted CIntegration container.
Deleted CSolver container.
Deleted CIteration container.
Deleted CInterpolator container.
Deleted CTransfer container.
Deleted CGeometry container.
Deleted CFreeFormDefBox class.
Deleted CSurfaceMovement class.
Deleted CVolumetricMovement class.
Deleted CConfig container.
Deleted COutput class.
-------------------------------------------------------------------------

Completed in 45.564959 seconds on 1 core.

------------------------- Exit Success (SU2_CFD) ------------------------

