
-------------------------------------------------------------------------
|    ___ _   _ ___                                                      |
|   / __| | | |_  )   Release 5.0.0  "Raven"                            |
|   \__ \ |_| |/ /                                                      |
|   |___/\___//___|   Suite (Computational Fluid Dynamics Code)         |
|                                                                       |
-------------------------------------------------------------------------
| SU2 Original Developers: Dr. Francisco D. Palacios.                   |
|                          Dr. Thomas D. Economon.                      |
-------------------------------------------------------------------------
| SU2 Developers:                                                       |
| - Prof. Juan J. Alonso's group at Stanford University.                |
| - Prof. Piero Colonna's group at Delft University of Technology.      |
| - Prof. Nicolas R. Gauger's group at Kaiserslautern U. of Technology. |
| - Prof. Alberto Guardone's group at Polytechnic University of Milan.  |
| - Prof. Rafael Palacios' group at Imperial College London.            |
| - Prof. Edwin van der Weide's group at the University of Twente.      |
| - Prof. Vincent Terrapon's group at the University of Liege.          |
-------------------------------------------------------------------------
| Copyright (C) 2012-2017 SU2, the open-source CFD code.                |
|                                                                       |
| SU2 is free software; you can redistribute it and/or                  |
| modify it under the terms of the GNU Lesser General Public            |
| License as published by the Free Software Foundation; either          |
| version 2.1 of the License, or (at your option) any later version.    |
|                                                                       |
| SU2 is distributed in the hope that it will be useful,                |
| but WITHOUT ANY WARRANTY; without even the implied warranty of        |
| MERCHANTABILITY or FITNESS FOR A PARTICULAR PURPOSE. See the GNU      |
| Lesser General Public License for more details.                       |
|                                                                       |
| You should have received a copy of the GNU Lesser General Public      |
| License along with SU2. If not, see <http://www.gnu.org/licenses/>.   |
-------------------------------------------------------------------------

------------------------ Physical Case Definition -----------------------
Compressible Euler equations.
Mach number: 0.8.
Angle of attack (AoA): 1.25 deg, and angle of sideslip (AoS): 0 deg.
No restart solution, use the values at infinity (freestream).
Non-Dimensional simulation (P=1.0, Rho=1.0, T=1.0 at the farfield).
The reference length/area (force coefficient) is 1.
The reference length (moment computation) is 1.
Reference origin (moment computation) is (0.25, 0, 0).
Surface(s) where the force coefficients are evaluated: airfoil.
Surface(s) where the objective function is evaluated: airfoil.
Surface(s) plotted in the output file: airfoil.
Surface(s) affected by the design variables: airfoil.
Input mesh file name: mesh_NACA0012_inv_deform.su2

---------------------- Space Numerical Integration ----------------------
Jameson-Schmidt-Turkel scheme for the flow inviscid terms.
JST viscous coefficients (1st, 2nd & 4th): 0.15, 0.5, 0.02.
The method includes a grid stretching correction (p = 0.3).
Second order integration.
Gradient Computation using weighted Least-Squares method.

---------------------- Time Numerical Integration -----------------------
Local time stepping (steady state simulation).
Euler implicit method for the flow equations.
W Multigrid Cycle, with 3 multigrid levels.
Damping factor for the residual restriction: 1.
Damping factor for the correction prolongation: 1.
No CFL adaptation.
Multigrid Level:                       0     1     2     3
Courant-Friedrichs-Lewy number:        5
MG PreSmooth coefficients:             1     2     3     3
MG PostSmooth coefficients:            0     0     0     0
MG CorrecSmooth coefficients:          0     0     0     0

------------------------- Convergence Criteria --------------------------
Maximum number of iterations: 2000.
Cauchy criteria for Drag using 100 elements and epsilon 1e-06.
Start convergence criteria at iteration 10.

-------------------------- Output Information ---------------------------
Writing a flow solution every 250 iterations.
Writing the convergence history every 1 iterations.
The output file format is Paraview ASCII (.vtk).
Convergence history file name: history_direct.
Forces breakdown file name: forces_breakdown.dat.
Surface flow coefficients file name: surface_flow.
Flow variables file name: flow.
Restart flow file name: restart_flow.dat.

------------------- Config File Boundary Information --------------------
Euler wall boundary marker(s): airfoil.
Far-field boundary marker(s): farfield.

---------------------- Read Grid File Information -----------------------
Two dimensional problem.
5233 points.
2 surface markers.
200 boundary elements in index 0 (Marker = airfoil).
50 boundary elements in index 1 (Marker = farfield).
10216 triangles.

------------------------- Geometry Preprocessing ------------------------
Setting point connectivity.
Renumbering points (Reverse Cuthill McKee Ordering).
Recomputing point connectivity.
Setting element connectivity.
Checking the numerical grid orientation.
Identifying edges and vertices.
Computing centers of gravity.
Setting the control volume structure.
Area of the computational grid: 1.25e+03.
Searching for the closest normal neighbors to the surfaces.
Compute the surface curvature.
Max K: 7.84e+03. Mean K: 35.2. Standard deviation K: 494.
Checking for periodicity.
Setting the multigrid structure.
MG level: 0 -> CVs: 5233. Agglomeration rate 1/1.00. CFL 5.
MG level: 1 -> CVs: 1533. Agglomeration rate 1/3.41. CFL 4.06.
MG level: 2 -> CVs: 443. Agglomeration rate 1/3.46. CFL 3.27.
MG level: 3 -> CVs: 125. Agglomeration rate 1/3.54. CFL 2.61.
Computing wall distances.
Wetted area = 2.03 m.
Area projection in the x-plane = 0.112 m, y-plane = 1 m.

------------------------- Driver information --------------------------
A Fluid driver has been instantiated.

------------------------ Iteration Preprocessing ------------------------
Zone 1: Euler/Navier-Stokes/RANS flow iteration.

------------------------- Solver Preprocessing --------------------------
Inviscid flow: Computing density based on free-stream
temperature and pressure using the ideal gas law.
Force coefficients computed using free-stream values.
-- Input conditions:
Fluid Model: STANDARD_AIR 
Specific gas constant: 287.058 N.m/kg.K.
Specific gas constant (non-dim): 1
Specific Heat Ratio: 1.4
Free-stream static pressure: 101325 Pa.
Free-stream total pressure: 154454 Pa.
Free-stream temperature: 288.15 K.
Free-stream density: 1.22498 kg/m^3.
Free-stream velocity: (272.173, 5.93883) m/s. Magnitude: 272.238 m/s (529.186 KTS).
Free-stream total energy per unit mass: 243846 m^2/s^2.
-- Reference values:
Reference specific gas constant: 287.058 N.m/kg.K.
Reference pressure: 101325 Pa.
Reference temperature: 288.15 K.
Reference density: 1.22498 kg/m^3.
Reference velocity: 287.603 m/s.
Reference energy per unit mass: 82715.8 m^2/s^2.
-- Resulting non-dimensional state:
Mach number (non-dim): 0.8
Specific gas constant (non-dim): 1
Free-stream temperature (non-dim): 1
Free-stream pressure (non-dim): 1
Free-stream density (non-dim): 1
Free-stream velocity (non-dim): (0.946348, 0.0206494). Magnitude: 0.946573
Free-stream total energy per unit mass (non-dim): 2.948

Initialize Jacobian structure (Euler). MG level: 0.
Initialize Jacobian structure (Euler). MG level: 1.
Initialize Jacobian structure (Euler). MG level: 2.
Initialize Jacobian structure (Euler). MG level: 3.

----------------- Integration and Numerics Preprocessing ----------------
Integration Preprocessing.
Numerics Preprocessing.

------------------------------ Begin Solver -----------------------------

---------------------- Local Time Stepping Summary ----------------------
MG level: 0 -> Min. DT: 0.000222787. Max. DT: 1.81394. CFL: 5.
MG level: 1 -> Min. DT: 0.000367702. Max. DT: 2.77319. CFL: 4.05935.
MG level: 2 -> Min. DT: 0.000502778. Max. DT: 3.70654. CFL: 3.27325.
MG level: 3 -> Min. DT: 0.000446606. Max. DT: 4.74459. CFL: 2.6081.
-------------------------------------------------------------------------

----------------------- Residual Evolution Summary ----------------------
log10[Maximum residual]: -2.56711.
Maximum residual point 97, located at (0.00056, -0.00425965).
-------------------------------------------------------------------------

 Iter    Time(s)     Res[Rho]     Res[RhoE]      CL(Total)      CD(Total)
    0   0.178432    -3.620537     -3.024160       0.089933       0.087465
    1   0.176206    -3.505102     -2.886542       0.131624       0.045766
    2   0.175722    -3.686811     -3.101395       0.166482       0.031102
    3   0.175446    -3.702381     -3.133974       0.195603       0.021850
    4   0.175325    -3.747406     -3.184246       0.223805       0.016227
    5   0.175505    -3.776651     -3.226450       0.249701       0.012465
    6   0.175261    -3.792559     -3.244660       0.271438       0.009775
    7   0.175127    -3.831747     -3.279665       0.288441       0.007826
    8   0.175011    -3.895778     -3.347649       0.301169       0.006426
    9   0.174923    -3.955858     -3.420693       0.310390       0.005456
   10   0.174857    -3.991813     -3.463353       0.316825       0.004818
   11   0.174989    -4.023684     -3.493438       0.321123       0.004413
   12   0.174889    -4.066876     -3.536163       0.323883       0.004156
   13   0.174843    -4.117016     -3.591665       0.325609       0.003990
   14   0.174803    -4.166244     -3.649307       0.326688       0.003880
   15   0.174825    -4.211761     -3.700612       0.327367       0.003798
   16   0.174851    -4.255273     -3.745819       0.327783       0.003727
   17   0.174903    -4.298381     -3.789456       0.328008       0.003658
   18   0.174856    -4.341331     -3.834522       0.328103       0.003586
   19   0.174816    -4.383748     -3.880952       0.328109       0.003511
   20   0.174792    -4.425482     -3.927338       0.328058       0.003433
   21   0.174776    -4.466745     -3.972673       0.327962       0.003357
   22   0.174856    -4.507215     -4.016191       0.327827       0.003283
   23   0.174888    -4.547106     -4.058396       0.327655       0.003213
   24   0.174878    -4.587115     -4.100375       0.327450       0.003150
   25   0.174859    -4.628080     -4.142951       0.327224       0.003095
   26   0.174821    -4.670221     -4.186316       0.326988       0.003046
   27   0.174826    -4.713989     -4.230903       0.326757       0.003006
   28   0.174890    -4.758904     -4.276122       0.326547       0.002971
   29   0.174855    -4.803682     -4.320863       0.326360       0.002940
   30   0.174831    -4.847241     -4.364282       0.326199       0.002913
   31   0.174831    -4.889630     -4.406610       0.326063       0.002888
   32   0.174815    -4.930725     -4.447652       0.325948       0.002865
   33   0.174805    -4.970665     -4.487770       0.325848       0.002841
   34   0.174849    -5.009701     -4.527304       0.325760       0.002818
   35   0.174828    -5.048003     -4.566198       0.325676       0.002794
   36   0.174799    -5.085298     -4.603862       0.325592       0.002769
   37   0.174778    -5.121520     -4.640316       0.325504       0.002743
   38   0.174760    -5.156630     -4.675498       0.325412       0.002717
   39   0.174780    -5.190844     -4.709635       0.325317       0.002690

---------------------- Local Time Stepping Summary ----------------------
MG level: 0 -> Min. DT: 0.000248223. Max. DT: 1.81391. CFL: 5.
MG level: 1 -> Min. DT: 0.000391379. Max. DT: 2.77184. CFL: 4.05935.
MG level: 2 -> Min. DT: 0.000520879. Max. DT: 3.70543. CFL: 3.27325.
MG level: 3 -> Min. DT: 0.000458608. Max. DT: 4.7475. CFL: 2.6081.
-------------------------------------------------------------------------

----------------------- Residual Evolution Summary ----------------------
log10[Maximum residual]: -4.25583.
Maximum residual point 1197, located at (0.518054, -0.142324).
-------------------------------------------------------------------------

 Iter    Time(s)     Res[Rho]     Res[RhoE]      CL(Total)      CD(Total)
   40   0.174789    -5.224409     -4.743014       0.325218       0.002664
   41   0.174780    -5.257471     -4.775807       0.325117       0.002639
   42   0.174773    -5.289933     -4.807921       0.325014       0.002614
   43   0.174755    -5.321537     -4.839144       0.324909       0.002591
   44   0.174738    -5.351773     -4.869022       0.324802       0.002569
   45   0.174768    -5.380296     -4.897289       0.324694       0.002549
   46   0.174754    -5.407002     -4.923906       0.324586       0.002529
   47   0.174742    -5.432064     -4.949025       0.324478       0.002512
   48   0.174734    -5.455773     -4.972831       0.324370       0.002495
   49   0.174739    -5.478412     -4.995507       0.324264       0.002480
   50   0.174737    -5.500085     -5.017036       0.324161       0.002465
   51   0.174764    -5.520725     -5.037309       0.324061       0.002452
   52   0.174784    -5.540053     -5.056107       0.323965       0.002439
   53   0.174767    -5.557828     -5.073376       0.323874       0.002427
   54   0.174776    -5.573993     -5.089247       0.323790       0.002416
   55   0.174758    -5.588659     -5.103978       0.323713       0.002405
   56   0.174763    -5.602071     -5.117870       0.323643       0.002394
   57   0.174782    -5.614573     -5.131228       0.323582       0.002384
   58   0.174778    -5.626555     -5.144367       0.323529       0.002374
   59   0.174779    -5.638368     -5.157489       0.323483       0.002365
   60   0.174762    -5.650256     -5.170671       0.323447       0.002356
   61   0.174754    -5.661900     -5.183343       0.323418       0.002348
   62   0.174773    -5.673774     -5.196111       0.323397       0.002340
   63   0.174764    -5.685963     -5.209066       0.323383       0.002333
   64   0.174754    -5.698547     -5.222211       0.323376       0.002327
   65   0.174749    -5.711581     -5.235550       0.323376       0.002321
   66   0.174748    -5.725073     -5.249125       0.323382       0.002316
   67   0.174740    -5.738822     -5.262768       0.323394       0.002311
   68   0.174759    -5.752877     -5.276642       0.323410       0.002307
   69   0.174753    -5.767180     -5.290694       0.323430       0.002304
   70   0.174740    -5.781761     -5.305057       0.323453       0.002301
   71   0.174735    -5.796470     -5.319659       0.323478       0.002299
   72   0.174731    -5.811351     -5.334606       0.323506       0.002297
   73   0.174739    -5.826560     -5.350054       0.323535       0.002296
   74   0.174753    -5.842227     -5.366079       0.323565       0.002295
   75   0.174741    -5.858377     -5.382641       0.323596       0.002295
   76   0.174739    -5.874965     -5.399645       0.323627       0.002295
   77   0.174736    -5.891984     -5.417072       0.323657       0.002296
   78   0.174738    -5.909387     -5.434849       0.323687       0.002296
   79   0.174751    -5.927093     -5.452876       0.323717       0.002298

---------------------- Local Time Stepping Summary ----------------------
MG level: 0 -> Min. DT: 0.000247529. Max. DT: 1.81391. CFL: 5.
MG level: 1 -> Min. DT: 0.000390317. Max. DT: 2.77184. CFL: 4.05935.
MG level: 2 -> Min. DT: 0.000519758. Max. DT: 3.70543. CFL: 3.27325.
MG level: 3 -> Min. DT: 0.000457632. Max. DT: 4.74749. CFL: 2.6081.
-------------------------------------------------------------------------

----------------------- Residual Evolution Summary ----------------------
log10[Maximum residual]: -4.7633.
Maximum residual point 253, located at (0.689775, 0.0562262).
-------------------------------------------------------------------------

 Iter    Time(s)     Res[Rho]     Res[RhoE]      CL(Total)      CD(Total)
   80   0.174757    -5.945040     -5.471092       0.323745       0.002299
   81   0.174744    -5.963157     -5.489428       0.323772       0.002300
   82   0.174744    -5.981381     -5.507825       0.323798       0.002302
   83   0.174738    -5.999695     -5.526287       0.323822       0.002304
   84   0.174749    -6.018099     -5.544817       0.323844       0.002306
   85   0.174770    -6.036629     -5.563444       0.323864       0.002308
   86   0.174762    -6.055325     -5.582204       0.323882       0.002310
   87   0.174758    -6.074175     -5.601057       0.323897       0.002313
   88   0.174749    -6.093201     -5.620013       0.323909       0.002315
   89   0.174745    -6.112377     -5.639027       0.323919       0.002317
   90   0.174742    -6.131651     -5.658030       0.323926       0.002319
   91   0.174759    -6.150914     -5.676894       0.323930       0.002322
   92   0.174748    -6.170065     -5.695513       0.323931       0.002324
   93   0.174737    -6.188945     -5.713729       0.323928       0.002326
   94   0.174732    -6.207363     -5.731373       0.323923       0.002328
   95   0.174742    -6.225109     -5.748263       0.323915       0.002330
   96   0.174741    -6.241970     -5.764215       0.323904       0.002331
   97   0.174756    -6.257771     -5.779111       0.323890       0.002333
   98   0.174748    -6.272380     -5.792872       0.323875       0.002335
   99   0.174740    -6.285691     -5.805445       0.323857       0.002336
  100   0.174737    -6.297656     -5.816823       0.323837       0.002337
  101   0.174735    -6.308320     -5.827082       0.323816       0.002338
  102   0.174746    -6.317783     -5.836334       0.323793       0.002339
  103   0.174742    -6.326194     -5.844733       0.323770       0.002340
  104   0.174733    -6.333724     -5.852431       0.323746       0.002341
  105   0.174730    -6.340591     -5.859629       0.323722       0.002342
  106   0.174731    -6.347015     -5.866515       0.323698       0.002342
  107   0.174729    -6.353233     -5.873290       0.323674       0.002343
  108   0.174743    -6.359465     -5.880146       0.323651       0.002343
  109   0.174755    -6.365912     -5.887263       0.323628       0.002343
  110   0.174758    -6.372754     -5.894795       0.323607       0.002343
  111   0.174758    -6.380166     -5.902897       0.323586       0.002343
  112   0.174755    -6.388249     -5.911638       0.323566       0.002343
  113   0.174750    -6.397142     -5.921150       0.323548       0.002343
  114   0.174764    -6.406938     -5.931517       0.323530       0.002343
  115   0.174757    -6.417705     -5.942797       0.323514       0.002342
  116   0.174755    -6.429483     -5.955026       0.323500       0.002342
  117   0.174751    -6.442282     -5.968204       0.323486       0.002341
  118   0.174749    -6.456089     -5.982314       0.323474       0.002341
  119   0.174752    -6.470865     -5.997311       0.323464       0.002340

---------------------- Local Time Stepping Summary ----------------------
MG level: 0 -> Min. DT: 0.000247466. Max. DT: 1.81391. CFL: 5.
MG level: 1 -> Min. DT: 0.000390203. Max. DT: 2.77185. CFL: 4.05935.
MG level: 2 -> Min. DT: 0.00051965. Max. DT: 3.70543. CFL: 3.27325.
MG level: 3 -> Min. DT: 0.000457539. Max. DT: 4.74749. CFL: 2.6081.
-------------------------------------------------------------------------

----------------------- Residual Evolution Summary ----------------------
log10[Maximum residual]: -5.35861.
Maximum residual point 253, located at (0.689775, 0.0562262).
-------------------------------------------------------------------------

 Iter    Time(s)     Res[Rho]     Res[RhoE]      CL(Total)      CD(Total)
  120   0.174758    -6.486551     -6.013132       0.323454       0.002339
  121   0.174756    -6.503088     -6.029718       0.323446       0.002339
  122   0.174748    -6.520378     -6.046969       0.323439       0.002338
  123   0.174745    -6.538308     -6.064767       0.323433       0.002337
  124   0.174742    -6.556736     -6.082971       0.323428       0.002336
  125   0.174740    -6.575490     -6.101406       0.323424       0.002335
  126   0.174722    -6.594356     -6.119862       0.323421       0.002334
  127   0.174702    -6.613119     -6.138132       0.323419       0.002333
  128   0.174686    -6.631533     -6.155985       0.323418       0.002333
  129   0.174670    -6.649340     -6.173175       0.323418       0.002332
  130   0.174655    -6.666286     -6.189468       0.323418       0.002331
  131   0.174644    -6.682140     -6.204660       0.323420       0.002330
  132   0.174630    -6.696723     -6.218609       0.323421       0.002329
  133   0.174615    -6.709910     -6.231224       0.323424       0.002328
  134   0.174598    -6.721677     -6.242526       0.323426       0.002328
  135   0.174584    -6.732027     -6.252524       0.323430       0.002327
  136   0.174570    -6.741051     -6.261325       0.323433       0.002326
  137   0.174562    -6.748872     -6.269050       0.323437       0.002326
  138   0.174547    -6.755714     -6.275937       0.323441       0.002325
  139   0.174532    -6.761810     -6.282205       0.323446       0.002325
  140   0.174520    -6.767410     -6.288092       0.323450       0.002325
  141   0.174506    -6.772762     -6.293829       0.323455       0.002324
  142   0.174494    -6.778105     -6.299638       0.323459       0.002324
  143   0.174486    -6.783656     -6.305713       0.323464       0.002324
  144   0.174471    -6.789604     -6.312226       0.323468       0.002324
  145   0.174457    -6.796118     -6.319328       0.323472       0.002323
  146   0.174444    -6.803353     -6.327161       0.323477       0.002323
  147   0.174431    -6.811439     -6.335842       0.323481       0.002323
  148   0.174423    -6.820474     -6.345459       0.323484       0.002323
  149   0.174411    -6.830533     -6.356073       0.323488       0.002323
  150   0.174398    -6.841687     -6.367750       0.323491       0.002324
  151   0.174387    -6.853964     -6.380506       0.323494       0.002324
  152   0.174375    -6.867367     -6.394323       0.323497       0.002324
  153   0.174365    -6.881901     -6.409200       0.323499       0.002324
  154   0.174358    -6.897530     -6.425093       0.323501       0.002324
  155   0.174346    -6.914201     -6.441935       0.323503       0.002325
  156   0.174336    -6.931842     -6.459651       0.323505       0.002325
  157   0.174324    -6.950349     -6.478123       0.323506       0.002325
  158   0.174312    -6.969581     -6.497200       0.323507       0.002326
  159   0.174302    -6.989371     -6.516710       0.323507       0.002326

---------------------- Local Time Stepping Summary ----------------------
MG level: 0 -> Min. DT: 0.000247456. Max. DT: 1.81391. CFL: 5.
MG level: 1 -> Min. DT: 0.000390188. Max. DT: 2.77185. CFL: 4.05935.
MG level: 2 -> Min. DT: 0.000519639. Max. DT: 3.70543. CFL: 3.27325.
MG level: 3 -> Min. DT: 0.000457527. Max. DT: 4.74749. CFL: 2.6081.
-------------------------------------------------------------------------

----------------------- Residual Evolution Summary ----------------------
log10[Maximum residual]: -5.85984.
Maximum residual point 253, located at (0.689775, 0.0562262).
-------------------------------------------------------------------------

 Iter    Time(s)     Res[Rho]     Res[RhoE]      CL(Total)      CD(Total)
  160   0.174295    -7.009506     -6.536436       0.323508       0.002326
  161   0.174284    -7.029725     -6.556122       0.323508       0.002327
  162   0.174274    -7.049737     -6.575485       0.323508       0.002327
  163   0.174263    -7.069229     -6.594231       0.323507       0.002327
  164   0.174254    -7.087859     -6.612043       0.323507       0.002328
  165   0.174243    -7.105319     -6.628663       0.323506       0.002328
  166   0.174236    -7.121318     -6.643840       0.323505       0.002328
  167   0.174228    -7.135631     -6.657403       0.323504       0.002329
  168   0.174217    -7.148137     -6.669276       0.323502       0.002329
  169   0.174206    -7.158803     -6.679463       0.323501       0.002329
  170   0.174195    -7.167706     -6.688067       0.323500       0.002329
  171   0.174187    -7.175043     -6.695295       0.323498       0.002330
  172   0.174180    -7.181066     -6.701388       0.323496       0.002330
  173   0.174169    -7.186089     -6.706640       0.323495       0.002330
  174   0.174160    -7.190455     -6.711371       0.323493       0.002330
  175   0.174151    -7.194504     -6.715894       0.323491       0.002330
  176   0.174143    -7.198548     -6.720484       0.323489       0.002330
  177   0.174137    -7.202873     -6.725406       0.323488       0.002331
  178   0.174128    -7.207719     -6.730872       0.323486       0.002331
  179   0.174119    -7.213288     -6.737062       0.323484       0.002331
  180   0.174109    -7.219748     -6.744128       0.323483       0.002331
  181   0.174101    -7.227236     -6.752194       0.323481       0.002331
  182   0.174091    -7.235841     -6.761339       0.323480       0.002331
  183   0.174087    -7.245633     -6.771627       0.323478       0.002331
  184   0.174083    -7.256658     -6.783093       0.323477       0.002331
  185   0.174074    -7.268936     -6.795752       0.323476       0.002330
  186   0.174067    -7.282471     -6.809603       0.323475       0.002330
  187   0.174060    -7.297228     -6.824602       0.323474       0.002330
  188   0.174051    -7.313152     -6.840688       0.323473       0.002330
  189   0.174047    -7.330160     -6.857770       0.323472       0.002330
  190   0.174037    -7.348151     -6.875744       0.323471       0.002330
  191   0.174030    -7.366995     -6.894471       0.323471       0.002330
  192   0.174021    -7.386521     -6.913779       0.323470       0.002330
  193   0.174015    -7.406522     -6.933455       0.323470       0.002330
  194   0.174007    -7.426748     -6.953248       0.323470       0.002329
  195   0.174004    -7.446915     -6.972878       0.323470       0.002329
  196   0.173999    -7.466706     -6.992041       0.323470       0.002329
  197   0.173992    -7.485789     -7.010423       0.323470       0.002329
  198   0.173988    -7.503825     -7.027714       0.323470       0.002329
  199   0.173980    -7.520506     -7.043641       0.323470       0.002329

---------------------- Local Time Stepping Summary ----------------------
MG level: 0 -> Min. DT: 0.000247455. Max. DT: 1.81391. CFL: 5.
MG level: 1 -> Min. DT: 0.000390186. Max. DT: 2.77185. CFL: 4.05935.
MG level: 2 -> Min. DT: 0.000519637. Max. DT: 3.70543. CFL: 3.27325.
MG level: 3 -> Min. DT: 0.000457525. Max. DT: 4.74749. CFL: 2.6081.
-------------------------------------------------------------------------

----------------------- Residual Evolution Summary ----------------------
log10[Maximum residual]: -6.37395.
Maximum residual point 1353, located at (0.352508, 0.159073).
-------------------------------------------------------------------------

 Iter    Time(s)     Res[Rho]     Res[RhoE]      CL(Total)      CD(Total)
  200   0.173974    -7.535582     -7.057997       0.323470       0.002329
  201   0.173968    -7.548871     -7.070643       0.323471       0.002329
  202   0.173959    -7.560293     -7.081535       0.323471       0.002328
  203   0.173952    -7.569884     -7.090736       0.323472       0.002328
  204   0.173944    -7.577778     -7.098399       0.323472       0.002328
  205   0.173938    -7.584202     -7.104751       0.323473       0.002328
  206   0.173935    -7.589448     -7.110078       0.323474       0.002328
  207   0.173927    -7.593841     -7.114687       0.323474       0.002328
  208   0.173919    -7.597711     -7.118884       0.323475       0.002328
  209   0.173912    -7.601376     -7.122963       0.323476       0.002328
  210   0.173905    -7.605132     -7.127196       0.323477       0.002328
  211   0.173898    -7.609247     -7.131829       0.323477       0.002328
  212   0.173895    -7.613941     -7.137066       0.323478       0.002328
  213   0.173888    -7.619397     -7.143071       0.323479       0.002328
  214   0.173882    -7.625762     -7.149978       0.323479       0.002328
  215   0.173877    -7.633150     -7.157891       0.323480       0.002328
  216   0.173870    -7.641651     -7.166889       0.323481       0.002328
  217   0.173862    -7.651327     -7.177030       0.323482       0.002328
  218   0.173860    -7.662207     -7.188332       0.323482       0.002328
  219   0.173853    -7.674306     -7.200804       0.323483       0.002328
  220   0.173846    -7.687622     -7.214438       0.323483       0.002328
  221   0.173839    -7.702132     -7.229203       0.323484       0.002328
  222   0.173834    -7.717784     -7.245042       0.323484       0.002328
  223   0.173829    -7.734503     -7.261870       0.323485       0.002328
  224   0.173826    -7.752185     -7.279576       0.323485       0.002328
  225   0.173822    -7.770698     -7.298020       0.323485       0.002328
  226   0.173815    -7.789877     -7.317031       0.323485       0.002328
  227   0.173810    -7.809520     -7.336401       0.323486       0.002328
  228   0.173803    -7.829387     -7.355889       0.323486       0.002328
  229   0.173799    -7.849208     -7.375231       0.323486       0.002328
  230   0.173794    -7.868670     -7.394118       0.323486       0.002328
  231   0.173789    -7.887445     -7.412241       0.323486       0.002328
  232   0.173784    -7.905206     -7.429299       0.323486       0.002328
  233   0.173777    -7.921647     -7.445020       0.323486       0.002328
  234   0.173772    -7.936513     -7.459189       0.323486       0.002329
  235   0.173769    -7.949627     -7.471672       0.323486       0.002329
  236   0.173763    -7.960912     -7.482429       0.323485       0.002329
  237   0.173756    -7.970397     -7.491518       0.323485       0.002329
  238   0.173753    -7.978216     -7.499090       0.323485       0.002329
  239   0.173748    -7.984586     -7.505369       0.323485       0.002329

---------------------- Local Time Stepping Summary ----------------------
MG level: 0 -> Min. DT: 0.000247455. Max. DT: 1.81391. CFL: 5.
MG level: 1 -> Min. DT: 0.000390186. Max. DT: 2.77185. CFL: 4.05935.
MG level: 2 -> Min. DT: 0.000519637. Max. DT: 3.70543. CFL: 3.27325.
MG level: 3 -> Min. DT: 0.000457525. Max. DT: 4.74749. CFL: 2.6081.
-------------------------------------------------------------------------

----------------------- Residual Evolution Summary ----------------------
log10[Maximum residual]: -6.89728.
Maximum residual point 1206, located at (0.393121, 0.138857).
-------------------------------------------------------------------------

 Iter    Time(s)     Res[Rho]     Res[RhoE]      CL(Total)      CD(Total)
  240   0.173743    -7.989791     -7.510632       0.323485       0.002329
  241   0.173741    -7.994150     -7.515183       0.323484       0.002329
  242   0.173735    -7.997994     -7.519332       0.323484       0.002329
  243   0.173728    -8.001644     -7.523376       0.323484       0.002329
  244   0.173722    -8.005396     -7.527587       0.323483       0.002329
  245   0.173718    -8.009510     -7.532206       0.323483       0.002329
  246   0.173715    -8.014211     -7.537436       0.323483       0.002329
  247   0.173713    -8.019684     -7.543448       0.323483       0.002329
  248   0.173708    -8.026079     -7.550377       0.323482       0.002329
  249   0.173702    -8.033514     -7.558331       0.323482       0.002329
  250   0.173697    -8.042077     -7.567388       0.323482       0.002329

-------------------------- File Output Summary --------------------------
Writing comma-separated values (CSV) surface files.
Merging connectivities in the Master node.
Merging coordinates in the Master node.
Merging solution in the Master node.
Writing SU2 native restart file.
Writing Paraview ASCII volume solution file.
Writing Paraview ASCII surface solution file.
Writing the forces breakdown file.
-------------------------------------------------------------------------

  251   0.174009    -8.051829     -7.577601       0.323482       0.002329
  252   0.174008    -8.062807     -7.589000       0.323481       0.002329
  253   0.174003    -8.075033     -7.601599       0.323481       0.002329
  254   0.173997    -8.088498     -7.615384       0.323481       0.002329
  255   0.173990    -8.103171     -7.630315       0.323481       0.002329
  256   0.173984    -8.118998     -7.646329       0.323481       0.002329
  257   0.173979    -8.135901     -7.663342       0.323481       0.002329
  258   0.173976    -8.153773     -7.681237       0.323480       0.002329
  259   0.173970    -8.172475     -7.699869       0.323480       0.002329
  260   0.173965    -8.191832     -7.719054       0.323480       0.002329
  261   0.173959    -8.211628     -7.738573       0.323480       0.002329
  262   0.173952    -8.231611     -7.758171       0.323480       0.002329
  263   0.173947    -8.251490     -7.777560       0.323480       0.002329
  264   0.173944    -8.270944     -7.796429       0.323480       0.002329
  265   0.173940    -8.289634     -7.814458       0.323480       0.002329
  266   0.173934    -8.307226     -7.831340       0.323480       0.002329
  267   0.173929    -8.323414     -7.846806       0.323480       0.002329
  268   0.173925    -8.337951     -7.860649       0.323480       0.002329
  269   0.173920    -8.350674     -7.872749       0.323480       0.002329
  270   0.173916    -8.361526     -7.883085       0.323480       0.002329
  271   0.173911    -8.370559     -7.891739       0.323480       0.002329
  272   0.173906    -8.377934     -7.898888       0.323481       0.002328
  273   0.173901    -8.383896     -7.904780       0.323481       0.002328
  274   0.173896    -8.388748     -7.909711       0.323481       0.002328
  275   0.173892    -8.392826     -7.913998       0.323481       0.002328
  276   0.173888    -8.396468     -7.917959       0.323481       0.002328
  277   0.173883    -8.399998     -7.921893       0.323481       0.002328
  278   0.173878    -8.403708     -7.926071       0.323481       0.002328
  279   0.173874    -8.407855     -7.930727       0.323481       0.002328

---------------------- Local Time Stepping Summary ----------------------
MG level: 0 -> Min. DT: 0.000247455. Max. DT: 1.81391. CFL: 5.
MG level: 1 -> Min. DT: 0.000390186. Max. DT: 2.77185. CFL: 4.05935.
MG level: 2 -> Min. DT: 0.000519637. Max. DT: 3.70543. CFL: 3.27325.
MG level: 3 -> Min. DT: 0.000457525. Max. DT: 4.74749. CFL: 2.6081.
-------------------------------------------------------------------------

----------------------- Residual Evolution Summary ----------------------
log10[Maximum residual]: -7.24633.
Maximum residual point 1206, located at (0.393121, 0.138857).
-------------------------------------------------------------------------

 Iter    Time(s)     Res[Rho]     Res[RhoE]      CL(Total)      CD(Total)
  280   0.173869    -8.412656     -7.936059       0.323481       0.002328
  281   0.173866    -8.418288     -7.942230       0.323482       0.002328
  282   0.173861    -8.424900     -7.949376       0.323482       0.002328
  283   0.173857    -8.432591     -7.957584       0.323482       0.002328
  284   0.173852    -8.441442     -7.966925       0.323482       0.002328
  285   0.173859    -8.451512     -7.977450       0.323482       0.002328
  286   0.173854    -8.462832     -7.989186       0.323482       0.002328
  287   0.173852    -8.475413     -8.002134       0.323482       0.002328
  288   0.173848    -8.489241     -8.016274       0.323482       0.002328
  289   0.173843    -8.504280     -8.031562       0.323482       0.002328
  290   0.173839    -8.520470     -8.047930       0.323482       0.002328
  291   0.173835    -8.537726     -8.065285       0.323482       0.002328
  292   0.173829    -8.555931     -8.083502       0.323482       0.002328
  293   0.173827    -8.574938     -8.102423       0.323482       0.002328
  294   0.173823    -8.594561     -8.121858       0.323482       0.002328
  295   0.173818    -8.614574     -8.141574       0.323483       0.002328
  296   0.173813    -8.634712     -8.161306       0.323483       0.002328
  297   0.173810    -8.654674     -8.180757       0.323483       0.002329
  298   0.173807    -8.674130     -8.199607       0.323483       0.002329
  299   0.173805    -8.692735     -8.217534       0.323483       0.002329
  300   0.173801    -8.710157     -8.234232       0.323483       0.002329
  301   0.173796    -8.726095     -8.249441       0.323483       0.002329
  302   0.173792    -8.740317     -8.262968       0.323483       0.002329
  303   0.173788    -8.752679     -8.274714       0.323482       0.002329
  304   0.173787    -8.763150     -8.284683       0.323482       0.002329
  305   0.173782    -8.771808     -8.292981       0.323482       0.002329
  306   0.173778    -8.778837     -8.299805       0.323482       0.002329
  307   0.173774    -8.784501     -8.305419       0.323482       0.002329
  308   0.173771    -8.789116     -8.310132       0.323482       0.002329
  309   0.173766    -8.793025     -8.314265       0.323482       0.002329
  310   0.173765    -8.796567     -8.318137       0.323482       0.002329
  311   0.173761    -8.800060     -8.322043       0.323482       0.002329
  312   0.173756    -8.803793     -8.326247       0.323482       0.002329
  313   0.173751    -8.808014     -8.330977       0.323482       0.002329
  314   0.173749    -8.812931     -8.336423       0.323482       0.002329
  315   0.173745    -8.818713     -8.342741       0.323482       0.002329
  316   0.173744    -8.825497     -8.350052       0.323482       0.002329
  317   0.173740    -8.833385     -8.358448       0.323482       0.002329
  318   0.173736    -8.842450     -8.367996       0.323482       0.002329
  319   0.173732    -8.852744     -8.378737       0.323482       0.002329

---------------------- Local Time Stepping Summary ----------------------
MG level: 0 -> Min. DT: 0.000247455. Max. DT: 1.81391. CFL: 5.
MG level: 1 -> Min. DT: 0.000390186. Max. DT: 2.77185. CFL: 4.05935.
MG level: 2 -> Min. DT: 0.000519637. Max. DT: 3.70543. CFL: 3.27325.
MG level: 3 -> Min. DT: 0.000457525. Max. DT: 4.74749. CFL: 2.6081.
-------------------------------------------------------------------------

----------------------- Residual Evolution Summary ----------------------
log10[Maximum residual]: -7.69566.
Maximum residual point 253, located at (0.689775, 0.0562262).
-------------------------------------------------------------------------

 Iter    Time(s)     Res[Rho]     Res[RhoE]      CL(Total)      CD(Total)
  320   0.173727    -8.864290     -8.390689       0.323482       0.002329
  321   0.173724    -8.877094     -8.403849       0.323482       0.002329
  322   0.173722    -8.891137     -8.418192       0.323482       0.002329
  323   0.173720    -8.906379     -8.433669       0.323482       0.002329
  324   0.173716    -8.922754     -8.450207       0.323482       0.002329
  325   0.173712    -8.940169     -8.467704       0.323482       0.002329
  326   0.173709    -8.958505     -8.486034       0.323482       0.002329
  327   0.173707    -8.977603     -8.505028       0.323482       0.002329
  328   0.173704    -8.997269     -8.524485       0.323482       0.002329
  329   0.173700    -9.017268     -8.544166       0.323482       0.002329
  330   0.173696    -9.037326     -8.563797       0.323482       0.002329
  331   0.173693    -9.057136     -8.583074       0.323482       0.002329
  332   0.173689    -9.076363     -8.601678       0.323482       0.002329
  333   0.173688    -9.094664     -8.619287       0.323482       0.002329
  334   0.173684    -9.111710     -8.635604       0.323482       0.002329
  335   0.173680    -9.127215     -8.650381       0.323482       0.002329
  336   0.173677    -9.140962     -8.663446       0.323482       0.002329

-------------------------- File Output Summary --------------------------
Writing comma-separated values (CSV) surface files.
Merging connectivities in the Master node.
Merging coordinates in the Master node.
Merging solution in the Master node.
Writing SU2 native restart file.
Writing Paraview ASCII volume solution file.
Writing Paraview ASCII surface solution file.
Writing the forces breakdown file.
-------------------------------------------------------------------------

History file, closed.

------------------------- Solver Postprocessing -------------------------
Deleted CNumerics container.
Deleted CIntegration container.
Deleted CSolver container.
Deleted CIteration container.
Deleted CInterpolator container.
Deleted CTransfer container.
Deleted CGeometry container.
Deleted CFreeFormDefBox class.
Deleted CSurfaceMovement class.
Deleted CVolumetricMovement class.
Deleted CConfig container.
Deleted COutput class.
-------------------------------------------------------------------------

Completed in 58.628380 seconds on 1 core.

------------------------- Exit Success (SU2_CFD) ------------------------

