
-------------------------------------------------------------------------
|    ___ _   _ ___                                                      |
|   / __| | | |_  )   Release 5.0.0  "Raven"                            |
|   \__ \ |_| |/ /                                                      |
|   |___/\___//___|   Suite (Computational Fluid Dynamics Code)         |
|                                                                       |
-------------------------------------------------------------------------
| SU2 Original Developers: Dr. Francisco D. Palacios.                   |
|                          Dr. Thomas D. Economon.                      |
-------------------------------------------------------------------------
| SU2 Developers:                                                       |
| - Prof. Juan J. Alonso's group at Stanford University.                |
| - Prof. Piero Colonna's group at Delft University of Technology.      |
| - Prof. Nicolas R. Gauger's group at Kaiserslautern U. of Technology. |
| - Prof. Alberto Guardone's group at Polytechnic University of Milan.  |
| - Prof. Rafael Palacios' group at Imperial College London.            |
| - Prof. Edwin van der Weide's group at the University of Twente.      |
| - Prof. Vincent Terrapon's group at the University of Liege.          |
-------------------------------------------------------------------------
| Copyright (C) 2012-2017 SU2, the open-source CFD code.                |
|                                                                       |
| SU2 is free software; you can redistribute it and/or                  |
| modify it under the terms of the GNU Lesser General Public            |
| License as published by the Free Software Foundation; either          |
| version 2.1 of the License, or (at your option) any later version.    |
|                                                                       |
| SU2 is distributed in the hope that it will be useful,                |
| but WITHOUT ANY WARRANTY; without even the implied warranty of        |
| MERCHANTABILITY or FITNESS FOR A PARTICULAR PURPOSE. See the GNU      |
| Lesser General Public License for more details.                       |
|                                                                       |
| You should have received a copy of the GNU Lesser General Public      |
| License along with SU2. If not, see <http://www.gnu.org/licenses/>.   |
-------------------------------------------------------------------------

------------------------ Physical Case Definition -----------------------
Compressible Euler equations.
Mach number: 0.8.
Angle of attack (AoA): 1.25 deg, and angle of sideslip (AoS): 0 deg.
No restart solution, use the values at infinity (freestream).
Non-Dimensional simulation (P=1.0, Rho=1.0, T=1.0 at the farfield).
The reference length/area (force coefficient) is 1.
The reference length (moment computation) is 1.
Reference origin (moment computation) is (0.25, 0, 0).
Surface(s) where the force coefficients are evaluated: airfoil.
Surface(s) where the objective function is evaluated: airfoil.
Surface(s) plotted in the output file: airfoil.
Surface(s) affected by the design variables: airfoil.
Input mesh file name: mesh_NACA0012_inv_deform.su2

---------------------- Space Numerical Integration ----------------------
Jameson-Schmidt-Turkel scheme for the flow inviscid terms.
JST viscous coefficients (1st, 2nd & 4th): 0.15, 0.5, 0.02.
The method includes a grid stretching correction (p = 0.3).
Second order integration.
Gradient Computation using weighted Least-Squares method.

---------------------- Time Numerical Integration -----------------------
Local time stepping (steady state simulation).
Euler implicit method for the flow equations.
W Multigrid Cycle, with 3 multigrid levels.
Damping factor for the residual restriction: 1.
Damping factor for the correction prolongation: 1.
No CFL adaptation.
Multigrid Level:                       0     1     2     3
Courant-Friedrichs-Lewy number:        5
MG PreSmooth coefficients:             1     2     3     3
MG PostSmooth coefficients:            0     0     0     0
MG CorrecSmooth coefficients:          0     0     0     0

------------------------- Convergence Criteria --------------------------
Maximum number of iterations: 2000.
Cauchy criteria for Drag using 100 elements and epsilon 1e-06.
Start convergence criteria at iteration 10.

-------------------------- Output Information ---------------------------
Writing a flow solution every 250 iterations.
Writing the convergence history every 1 iterations.
The output file format is Paraview ASCII (.vtk).
Convergence history file name: history_direct.
Forces breakdown file name: forces_breakdown.dat.
Surface flow coefficients file name: surface_flow.
Flow variables file name: flow.
Restart flow file name: restart_flow.dat.

------------------- Config File Boundary Information --------------------
Euler wall boundary marker(s): airfoil.
Far-field boundary marker(s): farfield.

---------------------- Read Grid File Information -----------------------
Two dimensional problem.
5233 points.
2 surface markers.
200 boundary elements in index 0 (Marker = airfoil).
50 boundary elements in index 1 (Marker = farfield).
10216 triangles.

------------------------- Geometry Preprocessing ------------------------
Setting point connectivity.
Renumbering points (Reverse Cuthill McKee Ordering).
Recomputing point connectivity.
Setting element connectivity.
Checking the numerical grid orientation.
Identifying edges and vertices.
Computing centers of gravity.
Setting the control volume structure.
Area of the computational grid: 1.25e+03.
Searching for the closest normal neighbors to the surfaces.
Compute the surface curvature.
Max K: 7.84e+03. Mean K: 35.8. Standard deviation K: 495.
Checking for periodicity.
Setting the multigrid structure.
MG level: 0 -> CVs: 5233. Agglomeration rate 1/1.00. CFL 5.
MG level: 1 -> CVs: 1533. Agglomeration rate 1/3.41. CFL 4.06.
MG level: 2 -> CVs: 443. Agglomeration rate 1/3.46. CFL 3.27.
MG level: 3 -> CVs: 125. Agglomeration rate 1/3.54. CFL 2.61.
Computing wall distances.
Wetted area = 2.03 m.
Area projection in the x-plane = 0.114 m, y-plane = 1 m.

------------------------- Driver information --------------------------
A Fluid driver has been instantiated.

------------------------ Iteration Preprocessing ------------------------
Zone 1: Euler/Navier-Stokes/RANS flow iteration.

------------------------- Solver Preprocessing --------------------------
Inviscid flow: Computing density based on free-stream
temperature and pressure using the ideal gas law.
Force coefficients computed using free-stream values.
-- Input conditions:
Fluid Model: STANDARD_AIR 
Specific gas constant: 287.058 N.m/kg.K.
Specific gas constant (non-dim): 1
Specific Heat Ratio: 1.4
Free-stream static pressure: 101325 Pa.
Free-stream total pressure: 154454 Pa.
Free-stream temperature: 288.15 K.
Free-stream density: 1.22498 kg/m^3.
Free-stream velocity: (272.173, 5.93883) m/s. Magnitude: 272.238 m/s (529.186 KTS).
Free-stream total energy per unit mass: 243846 m^2/s^2.
-- Reference values:
Reference specific gas constant: 287.058 N.m/kg.K.
Reference pressure: 101325 Pa.
Reference temperature: 288.15 K.
Reference density: 1.22498 kg/m^3.
Reference velocity: 287.603 m/s.
Reference energy per unit mass: 82715.8 m^2/s^2.
-- Resulting non-dimensional state:
Mach number (non-dim): 0.8
Specific gas constant (non-dim): 1
Free-stream temperature (non-dim): 1
Free-stream pressure (non-dim): 1
Free-stream density (non-dim): 1
Free-stream velocity (non-dim): (0.946348, 0.0206494). Magnitude: 0.946573
Free-stream total energy per unit mass (non-dim): 2.948

Initialize Jacobian structure (Euler). MG level: 0.
Initialize Jacobian structure (Euler). MG level: 1.
Initialize Jacobian structure (Euler). MG level: 2.
Initialize Jacobian structure (Euler). MG level: 3.

----------------- Integration and Numerics Preprocessing ----------------
Integration Preprocessing.
Numerics Preprocessing.

------------------------------ Begin Solver -----------------------------

---------------------- Local Time Stepping Summary ----------------------
MG level: 0 -> Min. DT: 0.000223356. Max. DT: 1.81655. CFL: 5.
MG level: 1 -> Min. DT: 0.00036936. Max. DT: 2.77554. CFL: 4.05935.
MG level: 2 -> Min. DT: 0.000505151. Max. DT: 3.70995. CFL: 3.27325.
MG level: 3 -> Min. DT: 0.000449163. Max. DT: 4.74877. CFL: 2.6081.
-------------------------------------------------------------------------

----------------------- Residual Evolution Summary ----------------------
log10[Maximum residual]: -2.56141.
Maximum residual point 97, located at (0.00056, -0.0043008).
-------------------------------------------------------------------------

 Iter    Time(s)     Res[Rho]     Res[RhoE]      CL(Total)      CD(Total)
    0   0.181112    -3.614929     -3.018552       0.056872       0.088813
    1   0.178607    -3.505796     -2.889822       0.090483       0.052352
    2   0.177143    -3.708154     -3.122438       0.111827       0.039392
    3   0.176412    -3.725954     -3.157676       0.130811       0.031281
    4   0.176004    -3.771912     -3.208072       0.150298       0.027282
    5   0.175783    -3.810681     -3.258657       0.169042       0.024998
    6   0.175952    -3.828466     -3.280799       0.184490       0.023532
    7   0.175720    -3.860375     -3.309982       0.195801       0.022526
    8   0.175578    -3.919184     -3.372489       0.203339       0.021820
    9   0.175415    -3.981842     -3.447405       0.207708       0.021329
   10   0.175301    -4.021804     -3.495762       0.209532       0.020981
   11   0.175256    -4.053272     -3.528061       0.209456       0.020705
   12   0.175374    -4.093773     -3.570384       0.208087       0.020457
   13   0.175317    -4.142560     -3.625909       0.205955       0.020213
   14   0.175230    -4.191948     -3.684206       0.203452       0.019975
   15   0.175191    -4.238930     -3.737523       0.200875       0.019763
   16   0.175164    -4.283448     -3.784002       0.198448       0.019580
   17   0.175141    -4.326606     -3.827930       0.196281       0.019422
   18   0.175252    -4.369195     -3.873115       0.194414       0.019291
   19   0.175261    -4.412784     -3.920893       0.192831       0.019182
   20   0.175211    -4.457854     -3.970454       0.191477       0.019093
   21   0.175166    -4.507057     -4.023425       0.190297       0.019024
   22   0.175142    -4.559036     -4.077399       0.189232       0.018969
   23   0.175176    -4.611517     -4.130482       0.188249       0.018918
   24   0.175172    -4.663702     -4.182952       0.187327       0.018869
   25   0.175146    -4.713659     -4.232501       0.186457       0.018823
   26   0.175120    -4.761890     -4.280036       0.185638       0.018781
   27   0.175085    -4.809004     -4.326202       0.184858       0.018742
   28   0.175061    -4.855034     -4.371055       0.184117       0.018705
   29   0.175127    -4.899397     -4.414209       0.183406       0.018670
   30   0.175104    -4.941475     -4.455250       0.182721       0.018634
   31   0.175081    -4.980984     -4.494040       0.182055       0.018598
   32   0.175066    -5.017623     -4.530395       0.181409       0.018563
   33   0.175054    -5.051609     -4.564609       0.180785       0.018529
   34   0.175088    -5.083346     -4.597048       0.180189       0.018496
   35   0.175130    -5.113342     -4.628115       0.179626       0.018464
   36   0.175132    -5.141835     -4.657845       0.179100       0.018434
   37   0.175118    -5.169259     -4.686621       0.178615       0.018406
   38   0.175107    -5.196083     -4.714741       0.178174       0.018379
   39   0.175092    -5.222690     -4.742347       0.177776       0.018355

---------------------- Local Time Stepping Summary ----------------------
MG level: 0 -> Min. DT: 0.000246363. Max. DT: 1.81662. CFL: 5.
MG level: 1 -> Min. DT: 0.00038905. Max. DT: 2.77486. CFL: 4.05935.
MG level: 2 -> Min. DT: 0.000518348. Max. DT: 3.70933. CFL: 3.27325.
MG level: 3 -> Min. DT: 0.00045961. Max. DT: 4.75042. CFL: 2.6081.
-------------------------------------------------------------------------

----------------------- Residual Evolution Summary ----------------------
log10[Maximum residual]: -4.2083.
Maximum residual point 1356, located at (0.60145, -0.15919).
-------------------------------------------------------------------------

 Iter    Time(s)     Res[Rho]     Res[RhoE]      CL(Total)      CD(Total)
   40   0.175089    -5.249000     -4.769245       0.177421       0.018334
   41   0.175108    -5.275132     -4.795683       0.177104       0.018314
   42   0.175114    -5.301330     -4.822020       0.176822       0.018295
   43   0.175094    -5.327719     -4.848440       0.176570       0.018279
   44   0.175081    -5.354280     -4.875013       0.176342       0.018263
   45   0.175082    -5.381002     -4.901819       0.176131       0.018249
   46   0.175136    -5.407696     -4.928698       0.175935       0.018236
   47   0.175145    -5.433978     -4.955371       0.175747       0.018223
   48   0.175131    -5.459838     -4.981919       0.175566       0.018211
   49   0.175114    -5.485564     -5.008587       0.175392       0.018200
   50   0.175100    -5.511336     -5.035386       0.175222       0.018189
   51   0.175094    -5.537245     -5.062235       0.175056       0.018179
   52   0.175135    -5.563375     -5.089081       0.174896       0.018169
   53   0.175115    -5.589776     -5.115813       0.174740       0.018160
   54   0.175105    -5.616448     -5.142323       0.174589       0.018151
   55   0.175084    -5.643188     -5.168385       0.174444       0.018143
   56   0.175065    -5.669672     -5.193749       0.174306       0.018135
   57   0.175053    -5.695521     -5.218206       0.174174       0.018128
   58   0.175092    -5.720515     -5.241787       0.174050       0.018121
   59   0.175079    -5.744544     -5.264654       0.173933       0.018114
   60   0.175063    -5.767659     -5.287029       0.173823       0.018108
   61   0.175052    -5.790092     -5.309231       0.173720       0.018102
   62   0.175046    -5.812046     -5.331410       0.173623       0.018096
   63   0.175050    -5.833828     -5.353885       0.173531       0.018091
   64   0.175062    -5.855538     -5.376660       0.173443       0.018086
   65   0.175057    -5.877255     -5.399620       0.173360       0.018082
   66   0.175049    -5.899030     -5.422647       0.173281       0.018077
   67   0.175031    -5.920965     -5.445750       0.173204       0.018073
   68   0.175027    -5.943037     -5.468799       0.173130       0.018069
   69   0.175061    -5.965240     -5.491751       0.173058       0.018065
   70   0.175045    -5.987498     -5.514490       0.172988       0.018061
   71   0.175032    -6.009587     -5.536727       0.172920       0.018058
   72   0.175027    -6.031414     -5.558450       0.172853       0.018054
   73   0.175019    -6.052848     -5.579670       0.172787       0.018051
   74   0.175016    -6.073893     -5.600494       0.172724       0.018047
   75   0.175042    -6.094712     -5.621171       0.172662       0.018044
   76   0.175033    -6.115519     -5.641964       0.172601       0.018041
   77   0.175024    -6.136555     -5.663134       0.172543       0.018038
   78   0.175026    -6.158026     -5.684853       0.172488       0.018035
   79   0.175019    -6.180158     -5.707323       0.172435       0.018032

---------------------- Local Time Stepping Summary ----------------------
MG level: 0 -> Min. DT: 0.000245403. Max. DT: 1.81662. CFL: 5.
MG level: 1 -> Min. DT: 0.000387804. Max. DT: 2.77488. CFL: 4.05935.
MG level: 2 -> Min. DT: 0.000517317. Max. DT: 3.70935. CFL: 3.27325.
MG level: 3 -> Min. DT: 0.00045886. Max. DT: 4.75039. CFL: 2.6081.
-------------------------------------------------------------------------

----------------------- Residual Evolution Summary ----------------------
log10[Maximum residual]: -5.14418.
Maximum residual point 545, located at (0.482168, -0.0842237).
-------------------------------------------------------------------------

 Iter    Time(s)     Res[Rho]     Res[RhoE]      CL(Total)      CD(Total)
   80   0.175019    -6.203116     -5.730657       0.172384       0.018030
   81   0.175033    -6.227047     -5.754955       0.172337       0.018027
   82   0.175024    -6.251993     -5.780182       0.172292       0.018025
   83   0.175018    -6.277901     -5.806226       0.172250       0.018023
   84   0.175011    -6.304620     -5.832901       0.172212       0.018021
   85   0.175008    -6.331952     -5.860027       0.172176       0.018019
   86   0.175028    -6.359681     -5.887439       0.172143       0.018017
   87   0.175024    -6.387567     -5.914964       0.172113       0.018016
   88   0.175024    -6.415441     -5.942517       0.172085       0.018014
   89   0.175015    -6.443159     -5.970023       0.172060       0.018013
   90   0.175011    -6.470696     -5.997519       0.172036       0.018012
   91   0.175008    -6.498030     -6.025006       0.172015       0.018011
   92   0.175036    -6.525246     -6.052606       0.171995       0.018010
   93   0.175032    -6.552448     -6.080404       0.171976       0.018009
   94   0.175022    -6.579783     -6.108509       0.171958       0.018008
   95   0.175019    -6.607378     -6.136975       0.171942       0.018007
   96   0.175009    -6.635364     -6.165871       0.171925       0.018006
   97   0.174999    -6.663824     -6.195224       0.171910       0.018005
   98   0.175020    -6.692810     -6.225023       0.171894       0.018004
   99   0.175018    -6.722304     -6.255196       0.171879       0.018003
  100   0.175011    -6.752135     -6.285528       0.171865       0.018003
  101   0.175005    -6.782168     -6.315878       0.171850       0.018002
  102   0.175000    -6.812237     -6.346093       0.171836       0.018001
  103   0.175004    -6.842212     -6.376080       0.171822       0.018000
  104   0.175011    -6.871961     -6.405723       0.171808       0.018000
  105   0.175006    -6.901345     -6.434884       0.171795       0.017999
  106   0.174998    -6.930238     -6.463489       0.171782       0.017998
  107   0.174994    -6.958713     -6.491721       0.171770       0.017998
  108   0.174987    -6.986756     -6.519553       0.171759       0.017997
  109   0.175005    -7.014375     -6.546966       0.171748       0.017996
  110   0.175005    -7.041674     -6.574097       0.171737       0.017996
  111   0.175000    -7.068800     -6.601101       0.171728       0.017995
  112   0.174993    -7.095909     -6.628109       0.171719       0.017995
  113   0.174985    -7.123130     -6.655237       0.171711       0.017994
  114   0.174981    -7.150560     -6.682561       0.171704       0.017994
  115   0.174996    -7.178270     -6.710145       0.171697       0.017993
  116   0.174990    -7.206319     -6.738046       0.171691       0.017993
  117   0.174983    -7.234720     -6.766278       0.171686       0.017993
  118   0.174976    -7.263440     -6.794795       0.171681       0.017993
  119   0.174974    -7.292412     -6.823544       0.171677       0.017992

---------------------- Local Time Stepping Summary ----------------------
MG level: 0 -> Min. DT: 0.000245286. Max. DT: 1.81662. CFL: 5.
MG level: 1 -> Min. DT: 0.00038767. Max. DT: 2.77488. CFL: 4.05935.
MG level: 2 -> Min. DT: 0.000517275. Max. DT: 3.70935. CFL: 3.27325.
MG level: 3 -> Min. DT: 0.000458837. Max. DT: 4.75039. CFL: 2.6081.
-------------------------------------------------------------------------

----------------------- Residual Evolution Summary ----------------------
log10[Maximum residual]: -6.07844.
Maximum residual point 298, located at (0.504931, -0.0664863).
-------------------------------------------------------------------------

 Iter    Time(s)     Res[Rho]     Res[RhoE]      CL(Total)      CD(Total)
  120   0.174974    -7.321541     -6.852450       0.171674       0.017992
  121   0.174983    -7.350732     -6.881432       0.171670       0.017992
  122   0.174980    -7.379879     -6.910394       0.171667       0.017992
  123   0.174972    -7.408868     -6.939237       0.171665       0.017992
  124   0.174964    -7.437585     -6.967854       0.171663       0.017992
  125   0.174961    -7.465908     -6.996114       0.171661       0.017991
  126   0.174976    -7.493729     -7.023903       0.171659       0.017991
  127   0.174970    -7.520937     -7.051110       0.171657       0.017991
  128   0.174966    -7.547481     -7.077680       0.171656       0.017991
  129   0.174963    -7.573396     -7.103635       0.171654       0.017991
  130   0.174959    -7.598672     -7.128930       0.171653       0.017991
  131   0.174959    -7.623300     -7.153540       0.171651       0.017991
  132   0.174975    -7.647289     -7.177470       0.171650       0.017991
  133   0.174974    -7.670683     -7.200754       0.171648       0.017991
  134   0.174970    -7.693547     -7.223453       0.171647       0.017991
  135   0.174964    -7.715948     -7.245640       0.171646       0.017991
  136   0.174960    -7.737961     -7.267397       0.171645       0.017991
  137   0.174954    -7.759668     -7.288816       0.171644       0.017991
  138   0.174968    -7.781159     -7.310004       0.171642       0.017991
  139   0.174964    -7.802509     -7.331041       0.171641       0.017991
  140   0.174962    -7.823799     -7.352021       0.171640       0.017991
  141   0.174961    -7.845103     -7.373033       0.171639       0.017991
  142   0.174962    -7.866488     -7.394155       0.171638       0.017990
  143   0.174964    -7.888014     -7.415458       0.171637       0.017990
  144   0.174969    -7.909733     -7.437005       0.171636       0.017990
  145   0.174968    -7.931697     -7.458852       0.171636       0.017990
  146   0.174966    -7.953947     -7.481047       0.171635       0.017990
  147   0.174964    -7.976515     -7.503630       0.171634       0.017990
  148   0.174962    -7.999430     -7.526629       0.171633       0.017990
  149   0.174973    -8.022715     -7.550071       0.171633       0.017990
  150   0.174971    -8.046387     -7.573970       0.171632       0.017990
  151   0.174965    -8.070456     -7.598332       0.171632       0.017990
  152   0.174964    -8.094933     -7.623164       0.171631       0.017990
  153   0.174958    -8.119827     -7.648465       0.171631       0.017990
  154   0.174955    -8.145143     -7.674231       0.171630       0.017990
  155   0.174969    -8.170875     -7.700444       0.171630       0.017990
  156   0.174967    -8.197008     -7.727081       0.171629       0.017990
  157   0.174962    -8.223536     -7.754125       0.171629       0.017990
  158   0.174960    -8.250451     -7.781555       0.171628       0.017990
  159   0.174960    -8.277742     -7.809344       0.171628       0.017990

---------------------- Local Time Stepping Summary ----------------------
MG level: 0 -> Min. DT: 0.000245286. Max. DT: 1.81662. CFL: 5.
MG level: 1 -> Min. DT: 0.000387672. Max. DT: 2.77488. CFL: 4.05935.
MG level: 2 -> Min. DT: 0.000517285. Max. DT: 3.70935. CFL: 3.27325.
MG level: 3 -> Min. DT: 0.000458847. Max. DT: 4.75039. CFL: 2.6081.
-------------------------------------------------------------------------

----------------------- Residual Evolution Summary ----------------------
log10[Maximum residual]: -7.00758.
Maximum residual point 771, located at (0.364569, -0.106354).
-------------------------------------------------------------------------

 Iter    Time(s)     Res[Rho]     Res[RhoE]      CL(Total)      CD(Total)
  160   0.174957    -8.305394     -7.837465       0.171628       0.017990
  161   0.174964    -8.333385     -7.865887       0.171627       0.017990
  162   0.174962    -8.361696     -7.894577       0.171627       0.017990
  163   0.174958    -8.390305     -7.923506       0.171627       0.017990
  164   0.174957    -8.419186     -7.952641       0.171626       0.017990
  165   0.174955    -8.448313     -7.981948       0.171626       0.017990
  166   0.174962    -8.477655     -8.011395       0.171626       0.017990
  167   0.174962    -8.507177     -8.040948       0.171626       0.017990
  168   0.174959    -8.536843     -8.070571       0.171625       0.017990
  169   0.174955    -8.566614     -8.100230       0.171625       0.017990
  170   0.174951    -8.596447     -8.129890       0.171625       0.017990
  171   0.174951    -8.626295     -8.159513       0.171625       0.017990
  172   0.174962    -8.656112     -8.189061       0.171625       0.017990
  173   0.174961    -8.685850     -8.218497       0.171624       0.017990
  174   0.174957    -8.715456     -8.247778       0.171624       0.017990
  175   0.174953    -8.744879     -8.276859       0.171624       0.017990
  176   0.174954    -8.774064     -8.305694       0.171624       0.017990
  177   0.174951    -8.802960     -8.334232       0.171624       0.017990
  178   0.174963    -8.831511     -8.362423       0.171624       0.017990
  179   0.174963    -8.859667     -8.390212       0.171624       0.017990
  180   0.174961    -8.887381     -8.417554       0.171623       0.017990
  181   0.174957    -8.914611     -8.444402       0.171623       0.017990
  182   0.174957    -8.941321     -8.470718       0.171623       0.017990
  183   0.174961    -8.967483     -8.496469       0.171623       0.017990
  184   0.174962    -8.993076     -8.521634       0.171623       0.017990
  185   0.174959    -9.018092     -8.546204       0.171623       0.017990
  186   0.174957    -9.042531     -8.570184       0.171623       0.017990
  187   0.174952    -9.066407     -8.593591       0.171623       0.017990
  188   0.174953    -9.089742     -8.616457       0.171623       0.017990
  189   0.174961    -9.112569     -8.638824       0.171623       0.017990
  190   0.174957    -9.134932     -8.660746       0.171623       0.017990
  191   0.174958    -9.156879     -8.682287       0.171623       0.017990
  192   0.174957    -9.178466     -8.703513       0.171623       0.017990
  193   0.174952    -9.199754     -8.724498       0.171623       0.017990
  194   0.174952    -9.220806     -8.745316       0.171623       0.017990
  195   0.174960    -9.241689     -8.766044       0.171623       0.017990
  196   0.174958    -9.262469     -8.786756       0.171622       0.017990
  197   0.174956    -9.283213     -8.807522       0.171622       0.017990
  198   0.174957    -9.303988     -8.828412       0.171622       0.017990
  199   0.174954    -9.324856     -8.849486       0.171622       0.017990

---------------------- Local Time Stepping Summary ----------------------
MG level: 0 -> Min. DT: 0.000245285. Max. DT: 1.81662. CFL: 5.
MG level: 1 -> Min. DT: 0.000387672. Max. DT: 2.77488. CFL: 4.05935.
MG level: 2 -> Min. DT: 0.000517286. Max. DT: 3.70935. CFL: 3.27325.
MG level: 3 -> Min. DT: 0.000458847. Max. DT: 4.75039. CFL: 2.6081.
-------------------------------------------------------------------------

----------------------- Residual Evolution Summary ----------------------
log10[Maximum residual]: -8.02271.
Maximum residual point 771, located at (0.364569, -0.106354).
-------------------------------------------------------------------------

 Iter    Time(s)     Res[Rho]     Res[RhoE]      CL(Total)      CD(Total)
  200   0.174954    -9.345879     -8.870801       0.171622       0.017990
  201   0.174961    -9.367112     -8.892405       0.171622       0.017990
  202   0.174965    -9.388604     -8.914335       0.171622       0.017990
  203   0.174963    -9.410395     -8.936616       0.171622       0.017990
  204   0.174963    -9.432516     -8.959262       0.171622       0.017990
  205   0.174961    -9.454981     -8.982267       0.171622       0.017990
  206   0.174971    -9.477790     -9.005605       0.171622       0.017990
  207   0.174972    -9.500922     -9.029231       0.171622       0.017990
  208   0.174969    -9.524334     -9.053073       0.171622       0.017990
  209   0.174966    -9.547955     -9.077031       0.171622       0.017990
  210   0.174962    -9.571688     -9.100977       0.171622       0.017990
  211   0.174960    -9.595402     -9.124755       0.171622       0.017990
  212   0.174968    -9.618940     -9.148181       0.171622       0.017990
  213   0.174965    -9.642115     -9.171051       0.171622       0.017990
  214   0.174966    -9.664717     -9.193146       0.171622       0.017990
  215   0.174962    -9.686525     -9.214248       0.171622       0.017990
  216   0.174962    -9.707317     -9.234154       0.171622       0.017990
  217   0.174960    -9.726886     -9.252691       0.171622       0.017990
  218   0.174967    -9.745063     -9.269737       0.171622       0.017990
  219   0.174965    -9.761727     -9.285229       0.171622       0.017990
  220   0.174962    -9.776825     -9.299177       0.171622       0.017990
  221   0.174967    -9.790375     -9.311661       0.171622       0.017990
  222   0.174972    -9.802470     -9.322824       0.171622       0.017990
  223   0.174976    -9.813265     -9.332861       0.171622       0.017990
  224   0.174982    -9.822967     -9.342004       0.171622       0.017990
  225   0.174980    -9.831817     -9.350500       0.171622       0.017990
  226   0.174979    -9.840072     -9.358603       0.171622       0.017990
  227   0.174975    -9.847991     -9.366556       0.171622       0.017990
  228   0.174972    -9.855820     -9.374586       0.171622       0.017990
  229   0.174980    -9.863787     -9.382895       0.171622       0.017990
  230   0.174978    -9.872095     -9.391662       0.171622       0.017990
  231   0.174974    -9.880921     -9.401039       0.171622       0.017990
  232   0.174972    -9.890417     -9.411156       0.171622       0.017990
  233   0.174970    -9.900708     -9.422120       0.171622       0.017990
  234   0.174968    -9.911900     -9.434017       0.171622       0.017990
  235   0.174977    -9.924078     -9.446920       0.171622       0.017990
  236   0.174973    -9.937310     -9.460883       0.171622       0.017990
  237   0.174972    -9.951650     -9.475951       0.171622       0.017990
  238   0.174968    -9.967139     -9.492155       0.171622       0.017990
  239   0.174966    -9.983808     -9.509519       0.171622       0.017990

---------------------- Local Time Stepping Summary ----------------------
MG level: 0 -> Min. DT: 0.000245285. Max. DT: 1.81662. CFL: 5.
MG level: 1 -> Min. DT: 0.000387672. Max. DT: 2.77488. CFL: 4.05935.
MG level: 2 -> Min. DT: 0.000517286. Max. DT: 3.70935. CFL: 3.27325.
MG level: 3 -> Min. DT: 0.000458847. Max. DT: 4.75039. CFL: 2.6081.
-------------------------------------------------------------------------

----------------------- Residual Evolution Summary ----------------------
log10[Maximum residual]: -8.64068.
Maximum residual point 771, located at (0.364569, -0.106354).
-------------------------------------------------------------------------

 Iter    Time(s)     Res[Rho]     Res[RhoE]      CL(Total)      CD(Total)
  240   0.174966   -10.001677     -9.528057       0.171622       0.017990
  241   0.174972   -10.020759     -9.547775       0.171622       0.017990

-------------------------- File Output Summary --------------------------
Writing comma-separated values (CSV) surface files.
Merging connectivities in the Master node.
Merging coordinates in the Master node.
Merging solution in the Master node.
Writing SU2 native restart file.
Writing Paraview ASCII volume solution file.
Writing Paraview ASCII surface solution file.
Writing the forces breakdown file.
-------------------------------------------------------------------------

History file, closed.

------------------------- Solver Postprocessing -------------------------
Deleted CNumerics container.
Deleted CIntegration container.
Deleted CSolver container.
Deleted CIteration container.
Deleted CInterpolator container.
Deleted CTransfer container.
Deleted CGeometry container.
Deleted CFreeFormDefBox class.
Deleted CSurfaceMovement class.
Deleted CVolumetricMovement class.
Deleted CConfig container.
Deleted COutput class.
-------------------------------------------------------------------------

Completed in 42.427195 seconds on 1 core.

------------------------- Exit Success (SU2_CFD) ------------------------

