
-------------------------------------------------------------------------
|    ___ _   _ ___                                                      |
|   / __| | | |_  )   Release 5.0.0  "Raven"                            |
|   \__ \ |_| |/ /                                                      |
|   |___/\___//___|   Suite (Computational Fluid Dynamics Code)         |
|                                                                       |
-------------------------------------------------------------------------
| SU2 Original Developers: Dr. Francisco D. Palacios.                   |
|                          Dr. Thomas D. Economon.                      |
-------------------------------------------------------------------------
| SU2 Developers:                                                       |
| - Prof. Juan J. Alonso's group at Stanford University.                |
| - Prof. Piero Colonna's group at Delft University of Technology.      |
| - Prof. Nicolas R. Gauger's group at Kaiserslautern U. of Technology. |
| - Prof. Alberto Guardone's group at Polytechnic University of Milan.  |
| - Prof. Rafael Palacios' group at Imperial College London.            |
| - Prof. Edwin van der Weide's group at the University of Twente.      |
| - Prof. Vincent Terrapon's group at the University of Liege.          |
-------------------------------------------------------------------------
| Copyright (C) 2012-2017 SU2, the open-source CFD code.                |
|                                                                       |
| SU2 is free software; you can redistribute it and/or                  |
| modify it under the terms of the GNU Lesser General Public            |
| License as published by the Free Software Foundation; either          |
| version 2.1 of the License, or (at your option) any later version.    |
|                                                                       |
| SU2 is distributed in the hope that it will be useful,                |
| but WITHOUT ANY WARRANTY; without even the implied warranty of        |
| MERCHANTABILITY or FITNESS FOR A PARTICULAR PURPOSE. See the GNU      |
| Lesser General Public License for more details.                       |
|                                                                       |
| You should have received a copy of the GNU Lesser General Public      |
| License along with SU2. If not, see <http://www.gnu.org/licenses/>.   |
-------------------------------------------------------------------------

------------------------ Physical Case Definition -----------------------
Continuous Euler adjoint equations.
Mach number: 0.8.
Angle of attack (AoA): 1.25 deg, and angle of sideslip (AoS): 0 deg.
No restart solution, use the values at infinity (freestream).
Read flow solution from: solution_flow.dat.
Non-Dimensional simulation (P=1.0, Rho=1.0, T=1.0 at the farfield).
The reference length/area (force coefficient) is 1.
The reference length (moment computation) is 1.
Reference origin (moment computation) is (0.25, 0, 0).
Surface(s) where the force coefficients are evaluated: airfoil.
Surface(s) where the objective function is evaluated: airfoil.
Surface(s) plotted in the output file: airfoil.
Surface(s) affected by the design variables: airfoil.
Input mesh file name: mesh_NACA0012_inv_deform.su2

----------------------- Design problem definition -----------------------
CL objective function.

---------------------- Space Numerical Integration ----------------------
Jameson-Schmidt-Turkel scheme for the adjoint inviscid terms.
JST viscous coefficients (1st, 2nd, & 4th): 0.15, 0.5, 0.02.
The method includes a grid stretching correction (p = 0.3).
Second order integration.
The reference sharp edge distance is: 0.15. 
Gradient Computation using weighted Least-Squares method.

---------------------- Time Numerical Integration -----------------------
Local time stepping (steady state simulation).
Euler implicit method for the adjoint equations.
W Multigrid Cycle, with 3 multigrid levels.
Damping factor for the residual restriction: 1.
Damping factor for the correction prolongation: 1.
No CFL adaptation.
Multigrid Level:                       0     1     2     3
Courant-Friedrichs-Lewy number:      2.5
MG PreSmooth coefficients:             1     2     3     3
MG PostSmooth coefficients:            0     0     0     0
MG CorrecSmooth coefficients:          0     0     0     0

------------------------- Convergence Criteria --------------------------
Maximum number of iterations: 2000.
Cauchy criteria for geo. sensitivity using 100 elements and epsilon 1e-06.
Start convergence criteria at iteration 10.

-------------------------- Output Information ---------------------------
Writing a flow solution every 250 iterations.
Writing the convergence history every 1 iterations.
The output file format is Paraview ASCII (.vtk).
Convergence history file name: history_adjoint.
Forces breakdown file name: forces_breakdown.dat.
Adjoint solution file name: solution_adj.dat.
Restart adjoint file name: restart_adj.dat.
Adjoint variables file name: adjoint.
Surface adjoint coefficients file name: surface_adjoint.

------------------- Config File Boundary Information --------------------
Euler wall boundary marker(s): airfoil.
Far-field boundary marker(s): farfield.

---------------------- Read Grid File Information -----------------------
Two dimensional problem.
5233 points.
2 surface markers.
200 boundary elements in index 0 (Marker = airfoil).
50 boundary elements in index 1 (Marker = farfield).
10216 triangles.

------------------------- Geometry Preprocessing ------------------------
Setting point connectivity.
Renumbering points (Reverse Cuthill McKee Ordering).
Recomputing point connectivity.
Setting element connectivity.
Checking the numerical grid orientation.
Identifying edges and vertices.
Computing centers of gravity.
Setting the control volume structure.
Area of the computational grid: 1.25e+03.
Searching for the closest normal neighbors to the surfaces.
Compute the surface curvature.
Max K: 7.84e+03. Mean K: 34.9. Standard deviation K: 494.
Checking for periodicity.
Setting the multigrid structure.
MG level: 0 -> CVs: 5233. Agglomeration rate 1/1.00. CFL 2.5.
MG level: 1 -> CVs: 1533. Agglomeration rate 1/3.41. CFL 2.03.
MG level: 2 -> CVs: 443. Agglomeration rate 1/3.46. CFL 1.64.
MG level: 3 -> CVs: 125. Agglomeration rate 1/3.54. CFL 1.3.
Computing wall distances.
Wetted area = 2.04 m.
Area projection in the x-plane = 0.115 m, y-plane = 1 m.

------------------------- Driver information --------------------------
A Fluid driver has been instantiated.

------------------------ Iteration Preprocessing ------------------------
Zone 1: adjoint Euler/Navier-Stokes/RANS flow iteration.

------------------------- Solver Preprocessing --------------------------
Inviscid flow: Computing density based on free-stream
temperature and pressure using the ideal gas law.
Force coefficients computed using free-stream values.
-- Input conditions:
Fluid Model: STANDARD_AIR 
Specific gas constant: 287.058 N.m/kg.K.
Specific gas constant (non-dim): 1
Specific Heat Ratio: 1.4
Free-stream static pressure: 101325 Pa.
Free-stream total pressure: 154454 Pa.
Free-stream temperature: 288.15 K.
Free-stream density: 1.22498 kg/m^3.
Free-stream velocity: (272.173, 5.93883) m/s. Magnitude: 272.238 m/s (529.186 KTS).
Free-stream total energy per unit mass: 243846 m^2/s^2.
-- Reference values:
Reference specific gas constant: 287.058 N.m/kg.K.
Reference pressure: 101325 Pa.
Reference temperature: 288.15 K.
Reference density: 1.22498 kg/m^3.
Reference velocity: 287.603 m/s.
Reference energy per unit mass: 82715.8 m^2/s^2.
-- Resulting non-dimensional state:
Mach number (non-dim): 0.8
Specific gas constant (non-dim): 1
Free-stream temperature (non-dim): 1
Free-stream pressure (non-dim): 1
Free-stream density (non-dim): 1
Free-stream velocity (non-dim): (0.946348, 0.0206494). Magnitude: 0.946573
Free-stream total energy per unit mass (non-dim): 2.948

Initialize Jacobian structure (Euler). MG level: 0.
Initialize Jacobian structure (Adjoint Euler). MG level: 0.
Initialize Jacobian structure (Euler). MG level: 1.
Initialize Jacobian structure (Adjoint Euler). MG level: 1.
Initialize Jacobian structure (Euler). MG level: 2.
Initialize Jacobian structure (Adjoint Euler). MG level: 2.
Initialize Jacobian structure (Euler). MG level: 3.
Initialize Jacobian structure (Adjoint Euler). MG level: 3.

----------------- Integration and Numerics Preprocessing ----------------
Integration Preprocessing.
Numerics Preprocessing.

------------------------------ Begin Solver -----------------------------
Begin direct solver to store flow data (single iteration).
Compute residuals to check the convergence of the direct problem.
log10[Maximum residual]: -8.8377, located at point 381.
End direct solver, begin adjoint problem.

---------------------- Local Time Stepping Summary ----------------------
MG level: 0 -> Min. DT: 0.000123253. Max. DT: 0.906199. CFL: 2.5.
MG level: 1 -> Min. DT: 0.000194453. Max. DT: 1.3852. CFL: 2.02968.
MG level: 2 -> Min. DT: 0.000259069. Max. DT: 1.85163. CFL: 1.63662.
MG level: 3 -> Min. DT: 0.000228399. Max. DT: 2.37233. CFL: 1.30405.
-------------------------------------------------------------------------

log10[Maximum residual]: -2.19648.
Maximum residual point 155, located at (0.59028, 0.0471801).

 Iter    Time(s)   Res[Psi_Rho]     Res[Psi_E]      Sens_Geo      Sens_AoA
    0   0.469121      -3.214373      -3.060254   -7.0968e-01    7.0406e-03
    1   0.324255      -2.606802      -2.943793   -8.4125e-01    7.0955e-02
    2   0.274068      -2.470087      -2.950510   -2.1525e-01    1.3714e-01
    3   0.250497      -2.420564      -2.930774    5.0836e-01    1.6255e-01
    4   0.236130      -2.449543      -2.938412    1.6485e+00    1.6856e-01
    5   0.225977      -2.472380      -2.976423    3.2542e+00    1.7828e-01
    6   0.218737      -2.485310      -3.008944    5.1404e+00    1.9141e-01
    7   0.213445      -2.501069      -3.029432    7.0918e+00    2.0286e-01
    8   0.209231      -2.515485      -3.034743    8.9660e+00    2.1218e-01
    9   0.205709      -2.522702      -3.035832    1.0694e+01    2.2043e-01
   10   0.202772      -2.521574      -3.034918    1.2241e+01    2.2788e-01
   11   0.200425      -2.516146      -3.032578    1.3592e+01    2.3446e-01
   12   0.198397      -2.511326      -3.031058    1.4747e+01    2.4014e-01
   13   0.196641      -2.509871      -3.030691    1.5716e+01    2.4500e-01
   14   0.195152      -2.512324      -3.031536    1.6513e+01    2.4912e-01
   15   0.193803      -2.517833      -3.033928    1.7156e+01    2.5257e-01
   16   0.192609      -2.525258      -3.037900    1.7664e+01    2.5544e-01
   17   0.191566      -2.533850      -3.043104    1.8057e+01    2.5782e-01
   18   0.190611      -2.543310      -3.049084    1.8352e+01    2.5977e-01
   19   0.189771      -2.553648      -3.055551    1.8566e+01    2.6137e-01
   20   0.189069      -2.565047      -3.062447    1.8709e+01    2.6265e-01
   21   0.188425      -2.577749      -3.069844    1.8791e+01    2.6369e-01
   22   0.187858      -2.591965      -3.077841    1.8820e+01    2.6452e-01
   23   0.187317      -2.607832      -3.086481    1.8802e+01    2.6518e-01
   24   0.186837      -2.625387      -3.095730    1.8742e+01    2.6570e-01
   25   0.186422      -2.644577      -3.105472    1.8646e+01    2.6613e-01
   26   0.186087      -2.665263      -3.115537    1.8519e+01    2.6648e-01
   27   0.185733      -2.687251      -3.125725    1.8365e+01    2.6677e-01
   28   0.185411      -2.710311      -3.135837    1.8190e+01    2.6704e-01
   29   0.185101      -2.734200      -3.145693    1.7995e+01    2.6730e-01
   30   0.184812      -2.758684      -3.155153    1.7787e+01    2.6755e-01
   31   0.184572      -2.783542      -3.164121    1.7567e+01    2.6782e-01
   32   0.184317      -2.808570      -3.172546    1.7339e+01    2.6810e-01
   33   0.184077      -2.833569      -3.180415    1.7106e+01    2.6840e-01
   34   0.183860      -2.858346      -3.187741    1.6869e+01    2.6872e-01
   35   0.183654      -2.882703      -3.194553    1.6631e+01    2.6907e-01
   36   0.183450      -2.906436      -3.200884    1.6393e+01    2.6943e-01
   37   0.183291      -2.929346      -3.206765    1.6156e+01    2.6981e-01
   38   0.183143      -2.951240      -3.212227    1.5922e+01    2.7021e-01
   39   0.183014      -2.971949      -3.217294    1.5690e+01    2.7062e-01

---------------------- Local Time Stepping Summary ----------------------
MG level: 0 -> Min. DT: 0.0001233. Max. DT: 0.9062. CFL: 2.5.
MG level: 1 -> Min. DT: 0.0001945. Max. DT: 1.385. CFL: 2.03.
MG level: 2 -> Min. DT: 0.0002591. Max. DT: 1.852. CFL: 1.637.
MG level: 3 -> Min. DT: 0.0002284. Max. DT: 2.372. CFL: 1.304.
-------------------------------------------------------------------------

log10[Maximum residual]: -1.872.
Maximum residual point 0, located at (0.9998, -3.633e-05).

 Iter    Time(s)   Res[Psi_Rho]     Res[Psi_E]      Sens_Geo      Sens_AoA
   40   0.182882      -2.991338      -3.221989    1.5461e+01    2.7104e-01
   41   0.182760      -3.009316      -3.226338    1.5236e+01    2.7147e-01
   42   0.182669      -3.025840      -3.230366    1.5015e+01    2.7190e-01
   43   0.182599      -3.040915      -3.234104    1.4797e+01    2.7232e-01
   44   0.182516      -3.054594      -3.237581    1.4583e+01    2.7274e-01
   45   0.182440      -3.066964      -3.240832    1.4373e+01    2.7316e-01
   46   0.182367      -3.078140      -3.243890    1.4167e+01    2.7356e-01
   47   0.182300      -3.088252      -3.246787    1.3964e+01    2.7395e-01
   48   0.182247      -3.097436      -3.249553    1.3764e+01    2.7432e-01
   49   0.182178      -3.105825      -3.252217    1.3567e+01    2.7467e-01
   50   0.182119      -3.113547      -3.254802    1.3374e+01    2.7501e-01
   51   0.182055      -3.120714      -3.257328    1.3183e+01    2.7533e-01
   52   0.181993      -3.127427      -3.259813    1.2995e+01    2.7562e-01
   53   0.181930      -3.133772      -3.262270    1.2810e+01    2.7590e-01
   54   0.181891      -3.139820      -3.264708    1.2627e+01    2.7616e-01
   55   0.181837      -3.145631      -3.267137    1.2447e+01    2.7640e-01
   56   0.181786      -3.151250      -3.269561    1.2269e+01    2.7662e-01
   57   0.181736      -3.156714      -3.271984    1.2093e+01    2.7683e-01
   58   0.181689      -3.162051      -3.274409    1.1920e+01    2.7702e-01
   59   0.181655      -3.167280      -3.276838    1.1749e+01    2.7719e-01
   60   0.181610      -3.172418      -3.279271    1.1581e+01    2.7735e-01
   61   0.181561      -3.177474      -3.281708    1.1415e+01    2.7750e-01
   62   0.181516      -3.182453      -3.284149    1.1251e+01    2.7763e-01
   63   0.181470      -3.187361      -3.286594    1.1090e+01    2.7775e-01
   64   0.181428      -3.192198      -3.289041    1.0932e+01    2.7787e-01
   65   0.181402      -3.196965      -3.291490    1.0776e+01    2.7797e-01
   66   0.181362      -3.201660      -3.293940    1.0623e+01    2.7806e-01
   67   0.181337      -3.206282      -3.296390    1.0473e+01    2.7815e-01
   68   0.181306      -3.210830      -3.298839    1.0326e+01    2.7823e-01
   69   0.181279      -3.215302      -3.301286    1.0181e+01    2.7830e-01
   70   0.181245      -3.219695      -3.303729    1.0040e+01    2.7836e-01
   71   0.181219      -3.224009      -3.306168    9.9019e+00    2.7842e-01
   72   0.181186      -3.228242      -3.308602    9.7670e+00    2.7848e-01
   73   0.181153      -3.232394      -3.311030    9.6352e+00    2.7853e-01
   74   0.181120      -3.236464      -3.313451    9.5067e+00    2.7857e-01
   75   0.181091      -3.240452      -3.315865    9.3815e+00    2.7861e-01
   76   0.181078      -3.244360      -3.318270    9.2597e+00    2.7865e-01
   77   0.181047      -3.248188      -3.320667    9.1412e+00    2.7868e-01
   78   0.181023      -3.251938      -3.323055    9.0261e+00    2.7871e-01
   79   0.180996      -3.255611      -3.325433    8.9145e+00    2.7874e-01

---------------------- Local Time Stepping Summary ----------------------
MG level: 0 -> Min. DT: 0.0001233. Max. DT: 0.9062. CFL: 2.5.
MG level: 1 -> Min. DT: 0.0001945. Max. DT: 1.385. CFL: 2.03.
MG level: 2 -> Min. DT: 0.0002591. Max. DT: 1.852. CFL: 1.637.
MG level: 3 -> Min. DT: 0.0002284. Max. DT: 2.372. CFL: 1.304.
-------------------------------------------------------------------------

log10[Maximum residual]: -1.907.
Maximum residual point 0, located at (0.9998, -3.633e-05).

 Iter    Time(s)   Res[Psi_Rho]     Res[Psi_E]      Sens_Geo      Sens_AoA
   80   0.180970      -3.259210      -3.327800    8.8062e+00    2.7876e-01
   81   0.180945      -3.262737      -3.330158    8.7013e+00    2.7879e-01
   82   0.180929      -3.266193      -3.332504    8.5999e+00    2.7881e-01
   83   0.180903      -3.269582      -3.334840    8.5018e+00    2.7882e-01
   84   0.180881      -3.272906      -3.337164    8.4071e+00    2.7884e-01
   85   0.180855      -3.276167      -3.339476    8.3157e+00    2.7885e-01
   86   0.180830      -3.279368      -3.341776    8.2277e+00    2.7887e-01
   87   0.180818      -3.282511      -3.344065    8.1429e+00    2.7888e-01
   88   0.180795      -3.285598      -3.346341    8.0615e+00    2.7889e-01
   89   0.180771      -3.288632      -3.348606    7.9832e+00    2.7890e-01
   90   0.180757      -3.291614      -3.350858    7.9082e+00    2.7891e-01
   91   0.180736      -3.294547      -3.353097    7.8363e+00    2.7892e-01
   92   0.180715      -3.297431      -3.355324    7.7675e+00    2.7893e-01
   93   0.180706      -3.300270      -3.357539    7.7018e+00    2.7894e-01
   94   0.180684      -3.303064      -3.359741    7.6392e+00    2.7894e-01
   95   0.180673      -3.305814      -3.361931    7.5795e+00    2.7895e-01
   96   0.180652      -3.308523      -3.364109    7.5228e+00    2.7896e-01
   97   0.180632      -3.311192      -3.366274    7.4690e+00    2.7896e-01
   98   0.180618      -3.313821      -3.368427    7.4181e+00    2.7897e-01
   99   0.180603      -3.316411      -3.370567    7.3700e+00    2.7897e-01
  100   0.180582      -3.318964      -3.372696    7.3247e+00    2.7898e-01
  101   0.180568      -3.321481      -3.374812    7.2821e+00    2.7898e-01
  102   0.180551      -3.323961      -3.376917    7.2422e+00    2.7899e-01
  103   0.180535      -3.326407      -3.379009    7.2050e+00    2.7899e-01
  104   0.180532      -3.328818      -3.381090    7.1704e+00    2.7899e-01
  105   0.180520      -3.331196      -3.383159    7.1384e+00    2.7900e-01
  106   0.180542      -3.333540      -3.385217    7.1090e+00    2.7900e-01
  107   0.180639      -3.335852      -3.387263    7.0820e+00    2.7900e-01
  108   0.180704      -3.338131      -3.389298    7.0575e+00    2.7901e-01
  109   0.180751      -3.340379      -3.391321    7.0354e+00    2.7901e-01
  110   0.180893      -3.342596      -3.393333    7.0157e+00    2.7901e-01
  111   0.181004      -3.344782      -3.395334    6.9984e+00    2.7901e-01
  112   0.181056      -3.346938      -3.397324    6.9834e+00    2.7901e-01
  113   0.181099      -3.349064      -3.399303    6.9706e+00    2.7902e-01
  114   0.181157      -3.351160      -3.401271    6.9601e+00    2.7902e-01
  115   0.181167      -3.353228      -3.403228    6.9519e+00    2.7902e-01
  116   0.181145      -3.355266      -3.405175    6.9458e+00    2.7902e-01
  117   0.181126      -3.357276      -3.407110    6.9418e+00    2.7902e-01
  118   0.181112      -3.359259      -3.409035    6.9399e+00    2.7902e-01
  119   0.181097      -3.361213      -3.410950    6.9402e+00    2.7902e-01

---------------------- Local Time Stepping Summary ----------------------
MG level: 0 -> Min. DT: 0.0001233. Max. DT: 0.9062. CFL: 2.5.
MG level: 1 -> Min. DT: 0.0001945. Max. DT: 1.385. CFL: 2.03.
MG level: 2 -> Min. DT: 0.0002591. Max. DT: 1.852. CFL: 1.637.
MG level: 3 -> Min. DT: 0.0002284. Max. DT: 2.372. CFL: 1.304.
-------------------------------------------------------------------------

log10[Maximum residual]: -1.953.
Maximum residual point 0, located at (0.9998, -3.633e-05).

 Iter    Time(s)   Res[Psi_Rho]     Res[Psi_E]      Sens_Geo      Sens_AoA
  120   0.181088      -3.363141      -3.412854    6.9424e+00    2.7902e-01
  121   0.181073      -3.365042      -3.414747    6.9467e+00    2.7902e-01
  122   0.181058      -3.366916      -3.416630    6.9529e+00    2.7902e-01
  123   0.181043      -3.368764      -3.418503    6.9611e+00    2.7902e-01
  124   0.181028      -3.370587      -3.420366    6.9712e+00    2.7902e-01
  125   0.181015      -3.372384      -3.422218    6.9831e+00    2.7902e-01
  126   0.181008      -3.374156      -3.424060    6.9969e+00    2.7902e-01
  127   0.180992      -3.375904      -3.425893    7.0125e+00    2.7902e-01
  128   0.180979      -3.377627      -3.427715    7.0298e+00    2.7903e-01
  129   0.180963      -3.379327      -3.429527    7.0489e+00    2.7903e-01
  130   0.180949      -3.381003      -3.431330    7.0698e+00    2.7903e-01
  131   0.180941      -3.382656      -3.433122    7.0922e+00    2.7903e-01
  132   0.180934      -3.384287      -3.434906    7.1164e+00    2.7903e-01
  133   0.180924      -3.385895      -3.436679    7.1421e+00    2.7903e-01
  134   0.180916      -3.387481      -3.438443    7.1694e+00    2.7903e-01
  135   0.180906      -3.389045      -3.440197    7.1983e+00    2.7903e-01
  136   0.180900      -3.390588      -3.441943    7.2286e+00    2.7903e-01
  137   0.180896      -3.392111      -3.443678    7.2605e+00    2.7903e-01
  138   0.180889      -3.393613      -3.445405    7.2938e+00    2.7903e-01
  139   0.180884      -3.395094      -3.447123    7.3285e+00    2.7904e-01
  140   0.180876      -3.396556      -3.448831    7.3647e+00    2.7904e-01
  141   0.180869      -3.397998      -3.450531    7.4022e+00    2.7904e-01
  142   0.180864      -3.399421      -3.452222    7.4410e+00    2.7904e-01
  143   0.180861      -3.400826      -3.453904    7.4811e+00    2.7904e-01
  144   0.180854      -3.402211      -3.455577    7.5226e+00    2.7905e-01
  145   0.180849      -3.403579      -3.457242    7.5652e+00    2.7905e-01
  146   0.180844      -3.404929      -3.458899    7.6091e+00    2.7905e-01
  147   0.180839      -3.406261      -3.460547    7.6542e+00    2.7905e-01
  148   0.180840      -3.407576      -3.462187    7.7005e+00    2.7905e-01
  149   0.180832      -3.408875      -3.463819    7.7479e+00    2.7906e-01
  150   0.180829      -3.410157      -3.465442    7.7964e+00    2.7906e-01
  151   0.180825      -3.411422      -3.467058    7.8460e+00    2.7906e-01
  152   0.180819      -3.412672      -3.468666    7.8967e+00    2.7906e-01
  153   0.180813      -3.413906      -3.470267    7.9484e+00    2.7907e-01
  154   0.180813      -3.415124      -3.471859    8.0011e+00    2.7907e-01
  155   0.180808      -3.416328      -3.473445    8.0548e+00    2.7907e-01
  156   0.180803      -3.417516      -3.475022    8.1095e+00    2.7908e-01
  157   0.180798      -3.418691      -3.476593    8.1652e+00    2.7908e-01
  158   0.180795      -3.419851      -3.478156    8.2217e+00    2.7908e-01
  159   0.180796      -3.420997      -3.479713    8.2792e+00    2.7908e-01

---------------------- Local Time Stepping Summary ----------------------
MG level: 0 -> Min. DT: 0.0001233. Max. DT: 0.9062. CFL: 2.5.
MG level: 1 -> Min. DT: 0.0001945. Max. DT: 1.385. CFL: 2.03.
MG level: 2 -> Min. DT: 0.0002591. Max. DT: 1.852. CFL: 1.637.
MG level: 3 -> Min. DT: 0.0002284. Max. DT: 2.372. CFL: 1.304.
-------------------------------------------------------------------------

log10[Maximum residual]: -1.993.
Maximum residual point 0, located at (0.9998, -3.633e-05).

 Iter    Time(s)   Res[Psi_Rho]     Res[Psi_E]      Sens_Geo      Sens_AoA
  160   0.180791      -3.422129      -3.481262    8.3375e+00    2.7909e-01
  161   0.180788      -3.423248      -3.482805    8.3967e+00    2.7909e-01
  162   0.180787      -3.424354      -3.484340    8.4567e+00    2.7909e-01
  163   0.180782      -3.425447      -3.485869    8.5175e+00    2.7910e-01
  164   0.180777      -3.426527      -3.487392    8.5791e+00    2.7910e-01
  165   0.180777      -3.427595      -3.488908    8.6414e+00    2.7910e-01
  166   0.180771      -3.428650      -3.490418    8.7045e+00    2.7910e-01
  167   0.180767      -3.429694      -3.491922    8.7683e+00    2.7911e-01
  168   0.180762      -3.430725      -3.493419    8.8328e+00    2.7911e-01
  169   0.180758      -3.431746      -3.494911    8.8980e+00    2.7911e-01
  170   0.180758      -3.432755      -3.496396    8.9639e+00    2.7911e-01
  171   0.180752      -3.433753      -3.497876    9.0303e+00    2.7912e-01
  172   0.180747      -3.434740      -3.499350    9.0975e+00    2.7912e-01
  173   0.180743      -3.435716      -3.500819    9.1652e+00    2.7912e-01
  174   0.180738      -3.436682      -3.502282    9.2334e+00    2.7912e-01
  175   0.180733      -3.437638      -3.503740    9.3023e+00    2.7913e-01
  176   0.180735      -3.438583      -3.505192    9.3717e+00    2.7913e-01
  177   0.180729      -3.439519      -3.506639    9.4416e+00    2.7913e-01
  178   0.180729      -3.440445      -3.508081    9.5120e+00    2.7913e-01
  179   0.180725      -3.441361      -3.509519    9.5830e+00    2.7914e-01
  180   0.180722      -3.442268      -3.510951    9.6543e+00    2.7914e-01
  181   0.180723      -3.443166      -3.512378    9.7262e+00    2.7914e-01
  182   0.180720      -3.444054      -3.513801    9.7985e+00    2.7914e-01
  183   0.180715      -3.444934      -3.515219    9.8712e+00    2.7914e-01
  184   0.180711      -3.445805      -3.516632    9.9443e+00    2.7914e-01
  185   0.180707      -3.446667      -3.518041    1.0018e+01    2.7915e-01
  186   0.180702      -3.447521      -3.519446    1.0092e+01    2.7915e-01
  187   0.180704      -3.448367      -3.520846    1.0166e+01    2.7915e-01
  188   0.180698      -3.449204      -3.522242    1.0241e+01    2.7915e-01
  189   0.180697      -3.450034      -3.523634    1.0315e+01    2.7915e-01
  190   0.180693      -3.450855      -3.525022    1.0391e+01    2.7915e-01
  191   0.180690      -3.451669      -3.526406    1.0466e+01    2.7916e-01
  192   0.180689      -3.452475      -3.527786    1.0542e+01    2.7916e-01
  193   0.180686      -3.453273      -3.529163    1.0618e+01    2.7916e-01
  194   0.180682      -3.454064      -3.530535    1.0695e+01    2.7916e-01
  195   0.180679      -3.454848      -3.531904    1.0771e+01    2.7916e-01
  196   0.180674      -3.455624      -3.533269    1.0848e+01    2.7916e-01
  197   0.180670      -3.456394      -3.534631    1.0925e+01    2.7916e-01
  198   0.180672      -3.457156      -3.535989    1.1003e+01    2.7917e-01
  199   0.180667      -3.457912      -3.537344    1.1080e+01    2.7917e-01

---------------------- Local Time Stepping Summary ----------------------
MG level: 0 -> Min. DT: 0.0001233. Max. DT: 0.9062. CFL: 2.5.
MG level: 1 -> Min. DT: 0.0001945. Max. DT: 1.385. CFL: 2.03.
MG level: 2 -> Min. DT: 0.0002591. Max. DT: 1.852. CFL: 1.637.
MG level: 3 -> Min. DT: 0.0002284. Max. DT: 2.372. CFL: 1.304.
-------------------------------------------------------------------------

log10[Maximum residual]: -1.999.
Maximum residual point 340, located at (0.9999, -0.0003801).

 Iter    Time(s)   Res[Psi_Rho]     Res[Psi_E]      Sens_Geo      Sens_AoA
  200   0.180663      -3.458661      -3.538696    1.1158e+01    2.7917e-01
  201   0.180661      -3.459403      -3.540044    1.1236e+01    2.7917e-01
  202   0.180658      -3.460139      -3.541390    1.1314e+01    2.7917e-01
  203   0.180649      -3.460868      -3.542732    1.1392e+01    2.7917e-01
  204   0.180643      -3.461591      -3.544071    1.1470e+01    2.7917e-01
  205   0.180632      -3.462308      -3.545407    1.1549e+01    2.7918e-01
  206   0.180628      -3.463019      -3.546740    1.1627e+01    2.7918e-01
  207   0.180612      -3.463724      -3.548071    1.1706e+01    2.7918e-01
  208   0.180596      -3.464422      -3.549398    1.1785e+01    2.7918e-01
  209   0.180585      -3.465115      -3.550723    1.1864e+01    2.7918e-01
  210   0.180569      -3.465802      -3.552046    1.1943e+01    2.7918e-01
  211   0.180553      -3.466484      -3.553366    1.2022e+01    2.7918e-01
  212   0.180542      -3.467159      -3.554683    1.2101e+01    2.7918e-01
  213   0.180527      -3.467830      -3.555998    1.2180e+01    2.7918e-01
  214   0.180512      -3.468494      -3.557310    1.2259e+01    2.7919e-01
  215   0.180502      -3.469154      -3.558620    1.2338e+01    2.7919e-01
  216   0.180487      -3.469808      -3.559928    1.2418e+01    2.7919e-01
  217   0.180476      -3.470457      -3.561234    1.2497e+01    2.7919e-01
  218   0.180460      -3.471102      -3.562538    1.2576e+01    2.7919e-01
  219   0.180446      -3.471741      -3.563839    1.2656e+01    2.7919e-01
  220   0.180434      -3.472375      -3.565138    1.2735e+01    2.7919e-01
  221   0.180421      -3.473004      -3.566436    1.2814e+01    2.7919e-01
  222   0.180408      -3.473628      -3.567731    1.2893e+01    2.7919e-01
  223   0.180395      -3.474248      -3.569025    1.2973e+01    2.7919e-01
  224   0.180388      -3.474863      -3.570317    1.3052e+01    2.7920e-01
  225   0.180375      -3.475474      -3.571607    1.3131e+01    2.7920e-01
  226   0.180367      -3.476080      -3.572895    1.3210e+01    2.7920e-01
  227   0.180353      -3.476682      -3.574182    1.3289e+01    2.7920e-01
  228   0.180339      -3.477279      -3.575467    1.3368e+01    2.7920e-01
  229   0.180327      -3.477873      -3.576750    1.3447e+01    2.7920e-01
  230   0.180308      -3.478462      -3.578032    1.3526e+01    2.7920e-01
  231   0.180289      -3.479046      -3.579313    1.3605e+01    2.7920e-01
  232   0.180274      -3.479627      -3.580592    1.3683e+01    2.7920e-01
  233   0.180255      -3.480204      -3.581870    1.3762e+01    2.7920e-01
  234   0.180233      -3.480777      -3.583146    1.3840e+01    2.7920e-01
  235   0.180210      -3.481346      -3.584421    1.3919e+01    2.7920e-01
  236   0.180188      -3.481911      -3.585695    1.3997e+01    2.7920e-01
  237   0.180166      -3.482473      -3.586968    1.4075e+01    2.7921e-01
  238   0.180145      -3.483030      -3.588239    1.4153e+01    2.7921e-01
  239   0.180121      -3.483585      -3.589509    1.4231e+01    2.7921e-01

---------------------- Local Time Stepping Summary ----------------------
MG level: 0 -> Min. DT: 0.0001233. Max. DT: 0.9062. CFL: 2.5.
MG level: 1 -> Min. DT: 0.0001945. Max. DT: 1.385. CFL: 2.03.
MG level: 2 -> Min. DT: 0.0002591. Max. DT: 1.852. CFL: 1.637.
MG level: 3 -> Min. DT: 0.0002284. Max. DT: 2.372. CFL: 1.304.
-------------------------------------------------------------------------

log10[Maximum residual]: -1.993.
Maximum residual point 340, located at (0.9999, -0.0003801).

 Iter    Time(s)   Res[Psi_Rho]     Res[Psi_E]      Sens_Geo      Sens_AoA
  240   0.180099      -3.484135      -3.590779    1.4308e+01    2.7921e-01
  241   0.180077      -3.484682      -3.592047    1.4386e+01    2.7921e-01
  242   0.180054      -3.485226      -3.593314    1.4463e+01    2.7921e-01
  243   0.180037      -3.485767      -3.594580    1.4541e+01    2.7921e-01
  244   0.180015      -3.486304      -3.595846    1.4618e+01    2.7921e-01
  245   0.179997      -3.486838      -3.597110    1.4695e+01    2.7921e-01
  246   0.179975      -3.487368      -3.598374    1.4771e+01    2.7921e-01
  247   0.179953      -3.487896      -3.599636    1.4848e+01    2.7921e-01
  248   0.179932      -3.488421      -3.600898    1.4924e+01    2.7921e-01
  249   0.179914      -3.488942      -3.602160    1.5001e+01    2.7921e-01
  250   0.179892      -3.489461      -3.603420    1.5077e+01    2.7921e-01

-------------------------- File Output Summary --------------------------
Writing comma-separated values (CSV) surface files.
Merging connectivities in the Master node.
Merging coordinates in the Master node.
Merging solution in the Master node.
Writing SU2 native restart file.
Writing Paraview ASCII volume solution file.
Writing Paraview ASCII surface solution file.
-------------------------------------------------------------------------

  251   0.180119      -3.489976      -3.604680    1.5153e+01    2.7921e-01
  252   0.180096      -3.490489      -3.605939    1.5228e+01    2.7921e-01
  253   0.180073      -3.490999      -3.607198    1.5304e+01    2.7921e-01
  254   0.180054      -3.491507      -3.608456    1.5379e+01    2.7921e-01
  255   0.180032      -3.492011      -3.609713    1.5454e+01    2.7921e-01
  256   0.180010      -3.492513      -3.610970    1.5529e+01    2.7921e-01
  257   0.179987      -3.493013      -3.612226    1.5604e+01    2.7921e-01
  258   0.179965      -3.493510      -3.613482    1.5678e+01    2.7921e-01
  259   0.179944      -3.494004      -3.614737    1.5752e+01    2.7921e-01
  260   0.179927      -3.494496      -3.615992    1.5826e+01    2.7921e-01
  261   0.179904      -3.494986      -3.617247    1.5900e+01    2.7921e-01
  262   0.179884      -3.495473      -3.618501    1.5974e+01    2.7921e-01
  263   0.179866      -3.495958      -3.619755    1.6047e+01    2.7921e-01
  264   0.179844      -3.496441      -3.621008    1.6120e+01    2.7921e-01
  265   0.179822      -3.496922      -3.622261    1.6193e+01    2.7921e-01
  266   0.179804      -3.497400      -3.623514    1.6266e+01    2.7921e-01
  267   0.179783      -3.497877      -3.624767    1.6338e+01    2.7921e-01
  268   0.179763      -3.498352      -3.626019    1.6410e+01    2.7921e-01
  269   0.179743      -3.498824      -3.627271    1.6482e+01    2.7921e-01
  270   0.179723      -3.499295      -3.628523    1.6554e+01    2.7921e-01
  271   0.179704      -3.499763      -3.629775    1.6625e+01    2.7921e-01
  272   0.179686      -3.500230      -3.631027    1.6696e+01    2.7921e-01
  273   0.179666      -3.500695      -3.632278    1.6767e+01    2.7921e-01
  274   0.179647      -3.501159      -3.633529    1.6838e+01    2.7921e-01
  275   0.179628      -3.501620      -3.634780    1.6908e+01    2.7921e-01
  276   0.179608      -3.502080      -3.636031    1.6978e+01    2.7921e-01
  277   0.179593      -3.502538      -3.637282    1.7048e+01    2.7921e-01
  278   0.179574      -3.502995      -3.638533    1.7117e+01    2.7921e-01
  279   0.179554      -3.503450      -3.639784    1.7187e+01    2.7921e-01

---------------------- Local Time Stepping Summary ----------------------
MG level: 0 -> Min. DT: 0.0001233. Max. DT: 0.9062. CFL: 2.5.
MG level: 1 -> Min. DT: 0.0001945. Max. DT: 1.385. CFL: 2.03.
MG level: 2 -> Min. DT: 0.0002591. Max. DT: 1.852. CFL: 1.637.
MG level: 3 -> Min. DT: 0.0002284. Max. DT: 2.372. CFL: 1.304.
-------------------------------------------------------------------------

log10[Maximum residual]: -1.993.
Maximum residual point 340, located at (0.9999, -0.0003801).

 Iter    Time(s)   Res[Psi_Rho]     Res[Psi_E]      Sens_Geo      Sens_AoA
  280   0.179536      -3.503904      -3.641034    1.7256e+01    2.7921e-01
  281   0.179517      -3.504356      -3.642285    1.7324e+01    2.7921e-01
  282   0.179497      -3.504807      -3.643536    1.7393e+01    2.7920e-01
  283   0.179481      -3.505257      -3.644786    1.7461e+01    2.7920e-01
  284   0.179461      -3.505705      -3.646037    1.7529e+01    2.7920e-01
  285   0.179441      -3.506152      -3.647287    1.7596e+01    2.7920e-01
  286   0.179423      -3.506597      -3.648538    1.7664e+01    2.7920e-01
  287   0.179404      -3.507042      -3.649788    1.7731e+01    2.7920e-01
  288   0.179385      -3.507485      -3.651039    1.7798e+01    2.7920e-01
  289   0.179369      -3.507927      -3.652290    1.7864e+01    2.7920e-01
  290   0.179350      -3.508368      -3.653540    1.7930e+01    2.7920e-01
  291   0.179333      -3.508808      -3.654791    1.7996e+01    2.7920e-01
  292   0.179314      -3.509247      -3.656042    1.8062e+01    2.7920e-01
  293   0.179297      -3.509685      -3.657293    1.8127e+01    2.7919e-01
  294   0.179280      -3.510122      -3.658544    1.8192e+01    2.7919e-01
  295   0.179267      -3.510558      -3.659794    1.8257e+01    2.7919e-01
  296   0.179253      -3.510993      -3.661045    1.8321e+01    2.7919e-01
  297   0.179240      -3.511427      -3.662297    1.8385e+01    2.7919e-01
  298   0.179226      -3.511861      -3.663548    1.8449e+01    2.7919e-01
  299   0.179213      -3.512293      -3.664799    1.8513e+01    2.7919e-01
  300   0.179203      -3.512725      -3.666050    1.8576e+01    2.7919e-01
  301   0.179190      -3.513157      -3.667302    1.8639e+01    2.7919e-01
  302   0.179178      -3.513587      -3.668553    1.8701e+01    2.7918e-01
  303   0.179165      -3.514017      -3.669805    1.8764e+01    2.7918e-01
  304   0.179152      -3.514447      -3.671056    1.8826e+01    2.7918e-01
  305   0.179140      -3.514875      -3.672308    1.8887e+01    2.7918e-01
  306   0.179130      -3.515304      -3.673560    1.8949e+01    2.7918e-01
  307   0.179121      -3.515731      -3.674811    1.9010e+01    2.7918e-01
  308   0.179112      -3.516158      -3.676063    1.9071e+01    2.7918e-01
  309   0.179104      -3.516585      -3.677315    1.9131e+01    2.7917e-01
  310   0.179094      -3.517011      -3.678567    1.9191e+01    2.7917e-01
  311   0.179085      -3.517437      -3.679819    1.9251e+01    2.7917e-01
  312   0.179077      -3.517863      -3.681072    1.9311e+01    2.7917e-01
  313   0.179068      -3.518288      -3.682324    1.9370e+01    2.7917e-01
  314   0.179059      -3.518713      -3.683576    1.9429e+01    2.7917e-01
  315   0.179050      -3.519137      -3.684828    1.9487e+01    2.7916e-01
  316   0.179041      -3.519561      -3.686081    1.9546e+01    2.7916e-01
  317   0.179035      -3.519985      -3.687333    1.9604e+01    2.7916e-01
  318   0.179030      -3.520409      -3.688585    1.9661e+01    2.7916e-01
  319   0.179026      -3.520833      -3.689838    1.9719e+01    2.7916e-01

---------------------- Local Time Stepping Summary ----------------------
MG level: 0 -> Min. DT: 0.0001233. Max. DT: 0.9062. CFL: 2.5.
MG level: 1 -> Min. DT: 0.0001945. Max. DT: 1.385. CFL: 2.03.
MG level: 2 -> Min. DT: 0.0002591. Max. DT: 1.852. CFL: 1.637.
MG level: 3 -> Min. DT: 0.0002284. Max. DT: 2.372. CFL: 1.304.
-------------------------------------------------------------------------

log10[Maximum residual]: -1.998.
Maximum residual point 340, located at (0.9999, -0.0003801).

 Iter    Time(s)   Res[Psi_Rho]     Res[Psi_E]      Sens_Geo      Sens_AoA
  320   0.179024      -3.521256      -3.691090    1.9776e+01    2.7916e-01
  321   0.179019      -3.521680      -3.692342    1.9832e+01    2.7915e-01
  322   0.179015      -3.522103      -3.693595    1.9889e+01    2.7915e-01
  323   0.179013      -3.522526      -3.694847    1.9945e+01    2.7915e-01
  324   0.179007      -3.522949      -3.696099    2.0001e+01    2.7915e-01
  325   0.179003      -3.523372      -3.697352    2.0056e+01    2.7915e-01
  326   0.178997      -3.523795      -3.698604    2.0111e+01    2.7914e-01
  327   0.178994      -3.524218      -3.699856    2.0166e+01    2.7914e-01
  328   0.178991      -3.524641      -3.701108    2.0220e+01    2.7914e-01
  329   0.178987      -3.525064      -3.702360    2.0275e+01    2.7914e-01
  330   0.178982      -3.525487      -3.703612    2.0328e+01    2.7914e-01
  331   0.178978      -3.525911      -3.704864    2.0382e+01    2.7913e-01
  332   0.178973      -3.526334      -3.706115    2.0435e+01    2.7913e-01
  333   0.178968      -3.526757      -3.707367    2.0488e+01    2.7913e-01
  334   0.178971      -3.527181      -3.708618    2.0541e+01    2.7913e-01
  335   0.178970      -3.527605      -3.709869    2.0593e+01    2.7912e-01
  336   0.178969      -3.528029      -3.711120    2.0645e+01    2.7912e-01
  337   0.178969      -3.528453      -3.712371    2.0696e+01    2.7912e-01
  338   0.178968      -3.528877      -3.713622    2.0748e+01    2.7912e-01
  339   0.178969      -3.529302      -3.714872    2.0799e+01    2.7912e-01
  340   0.178971      -3.529727      -3.716122    2.0849e+01    2.7911e-01
  341   0.178970      -3.530152      -3.717372    2.0900e+01    2.7911e-01
  342   0.178969      -3.530578      -3.718622    2.0950e+01    2.7911e-01
  343   0.178968      -3.531004      -3.719871    2.1000e+01    2.7911e-01
  344   0.178967      -3.531430      -3.721120    2.1049e+01    2.7910e-01
  345   0.178970      -3.531856      -3.722368    2.1098e+01    2.7910e-01
  346   0.178969      -3.532283      -3.723617    2.1147e+01    2.7910e-01
  347   0.178969      -3.532711      -3.724865    2.1195e+01    2.7910e-01
  348   0.178969      -3.533138      -3.726112    2.1243e+01    2.7909e-01
  349   0.178968      -3.533567      -3.727359    2.1291e+01    2.7909e-01
  350   0.178968      -3.533995      -3.728606    2.1339e+01    2.7909e-01
  351   0.178970      -3.534424      -3.729852    2.1386e+01    2.7909e-01
  352   0.178969      -3.534853      -3.731098    2.1433e+01    2.7908e-01
  353   0.178969      -3.535283      -3.732343    2.1479e+01    2.7908e-01
  354   0.178969      -3.535714      -3.733588    2.1525e+01    2.7908e-01
  355   0.178969      -3.536145      -3.734832    2.1571e+01    2.7908e-01
  356   0.178971      -3.536576      -3.736076    2.1617e+01    2.7907e-01
  357   0.178970      -3.537008      -3.737319    2.1662e+01    2.7907e-01
  358   0.178969      -3.537441      -3.738561    2.1707e+01    2.7907e-01
  359   0.178969      -3.537874      -3.739803    2.1752e+01    2.7906e-01

---------------------- Local Time Stepping Summary ----------------------
MG level: 0 -> Min. DT: 0.0001233. Max. DT: 0.9062. CFL: 2.5.
MG level: 1 -> Min. DT: 0.0001945. Max. DT: 1.385. CFL: 2.03.
MG level: 2 -> Min. DT: 0.0002591. Max. DT: 1.852. CFL: 1.637.
MG level: 3 -> Min. DT: 0.0002284. Max. DT: 2.372. CFL: 1.304.
-------------------------------------------------------------------------

log10[Maximum residual]: -2.007.
Maximum residual point 340, located at (0.9999, -0.0003801).

 Iter    Time(s)   Res[Psi_Rho]     Res[Psi_E]      Sens_Geo      Sens_AoA
  360   0.178969      -3.538307      -3.741045    2.1796e+01    2.7906e-01
  361   0.178969      -3.538741      -3.742285    2.1840e+01    2.7906e-01
  362   0.178971      -3.539176      -3.743525    2.1884e+01    2.7906e-01
  363   0.178970      -3.539611      -3.744764    2.1927e+01    2.7905e-01
  364   0.178970      -3.540047      -3.746003    2.1970e+01    2.7905e-01
  365   0.178969      -3.540484      -3.747240    2.2013e+01    2.7905e-01
  366   0.178968      -3.540921      -3.748477    2.2055e+01    2.7904e-01
  367   0.178968      -3.541359      -3.749713    2.2097e+01    2.7904e-01
  368   0.178969      -3.541797      -3.750949    2.2139e+01    2.7904e-01
  369   0.178968      -3.542236      -3.752183    2.2181e+01    2.7904e-01
  370   0.178967      -3.542676      -3.753416    2.2222e+01    2.7903e-01
  371   0.178967      -3.543117      -3.754649    2.2263e+01    2.7903e-01
  372   0.178966      -3.543558      -3.755881    2.2303e+01    2.7903e-01
  373   0.178969      -3.544000      -3.757111    2.2344e+01    2.7902e-01
  374   0.178968      -3.544442      -3.758341    2.2384e+01    2.7902e-01
  375   0.178968      -3.544885      -3.759570    2.2423e+01    2.7902e-01
  376   0.178969      -3.545329      -3.760797    2.2462e+01    2.7901e-01
  377   0.178968      -3.545774      -3.762024    2.2501e+01    2.7901e-01
  378   0.178967      -3.546219      -3.763250    2.2540e+01    2.7901e-01
  379   0.178969      -3.546665      -3.764474    2.2579e+01    2.7900e-01
  380   0.178968      -3.547112      -3.765697    2.2617e+01    2.7900e-01
  381   0.178968      -3.547560      -3.766919    2.2654e+01    2.7900e-01
  382   0.178968      -3.548008      -3.768140    2.2692e+01    2.7899e-01
  383   0.178969      -3.548457      -3.769360    2.2729e+01    2.7899e-01
  384   0.178971      -3.548907      -3.770578    2.2766e+01    2.7899e-01
  385   0.178971      -3.549358      -3.771795    2.2802e+01    2.7898e-01
  386   0.178970      -3.549809      -3.773011    2.2839e+01    2.7898e-01
  387   0.178971      -3.550262      -3.774225    2.2875e+01    2.7898e-01
  388   0.178970      -3.550714      -3.775439    2.2910e+01    2.7897e-01
  389   0.178969      -3.551168      -3.776650    2.2946e+01    2.7897e-01
  390   0.178972      -3.551623      -3.777860    2.2981e+01    2.7897e-01
  391   0.178971      -3.552078      -3.779069    2.3015e+01    2.7896e-01
  392   0.178970      -3.552534      -3.780277    2.3050e+01    2.7896e-01
  393   0.178970      -3.552991      -3.781482    2.3084e+01    2.7896e-01
  394   0.178970      -3.553449      -3.782687    2.3118e+01    2.7895e-01
  395   0.178970      -3.553908      -3.783889    2.3151e+01    2.7895e-01
  396   0.178971      -3.554367      -3.785091    2.3184e+01    2.7895e-01
  397   0.178970      -3.554827      -3.786290    2.3217e+01    2.7894e-01
  398   0.178970      -3.555288      -3.787488    2.3250e+01    2.7894e-01
  399   0.178968      -3.555750      -3.788684    2.3282e+01    2.7894e-01

---------------------- Local Time Stepping Summary ----------------------
MG level: 0 -> Min. DT: 0.0001233. Max. DT: 0.9062. CFL: 2.5.
MG level: 1 -> Min. DT: 0.0001945. Max. DT: 1.385. CFL: 2.03.
MG level: 2 -> Min. DT: 0.0002591. Max. DT: 1.852. CFL: 1.637.
MG level: 3 -> Min. DT: 0.0002284. Max. DT: 2.372. CFL: 1.304.
-------------------------------------------------------------------------

log10[Maximum residual]: -2.019.
Maximum residual point 340, located at (0.9999, -0.0003801).

 Iter    Time(s)   Res[Psi_Rho]     Res[Psi_E]      Sens_Geo      Sens_AoA
  400   0.178968      -3.556213      -3.789879    2.3314e+01    2.7893e-01
  401   0.178969      -3.556676      -3.791071    2.3346e+01    2.7893e-01
  402   0.178969      -3.557141      -3.792262    2.3378e+01    2.7893e-01
  403   0.178969      -3.557606      -3.793452    2.3409e+01    2.7892e-01
  404   0.178969      -3.558072      -3.794639    2.3440e+01    2.7892e-01
  405   0.178969      -3.558539      -3.795824    2.3470e+01    2.7891e-01
  406   0.178968      -3.559007      -3.797008    2.3500e+01    2.7891e-01
  407   0.178971      -3.559475      -3.798190    2.3530e+01    2.7891e-01
  408   0.178971      -3.559945      -3.799370    2.3560e+01    2.7890e-01
  409   0.178971      -3.560415      -3.800547    2.3589e+01    2.7890e-01
  410   0.178970      -3.560886      -3.801723    2.3619e+01    2.7890e-01
  411   0.178970      -3.561358      -3.802897    2.3647e+01    2.7889e-01
  412   0.178973      -3.561830      -3.804069    2.3676e+01    2.7889e-01
  413   0.178972      -3.562304      -3.805239    2.3704e+01    2.7889e-01
  414   0.178972      -3.562778      -3.806406    2.3732e+01    2.7888e-01
  415   0.178973      -3.563254      -3.807572    2.3760e+01    2.7888e-01
  416   0.178973      -3.563730      -3.808735    2.3787e+01    2.7887e-01
  417   0.178973      -3.564207      -3.809896    2.3814e+01    2.7887e-01
  418   0.178975      -3.564685      -3.811055    2.3841e+01    2.7887e-01
  419   0.178974      -3.565163      -3.812212    2.3868e+01    2.7886e-01
  420   0.178973      -3.565643      -3.813367    2.3894e+01    2.7886e-01
  421   0.178973      -3.566123      -3.814519    2.3920e+01    2.7885e-01
  422   0.178972      -3.566604      -3.815669    2.3946e+01    2.7885e-01
  423   0.178974      -3.567086      -3.816816    2.3971e+01    2.7885e-01
  424   0.178974      -3.567569      -3.817961    2.3996e+01    2.7884e-01
  425   0.178974      -3.568053      -3.819104    2.4021e+01    2.7884e-01
  426   0.178973      -3.568537      -3.820244    2.4046e+01    2.7883e-01
  427   0.178973      -3.569022      -3.821382    2.4070e+01    2.7883e-01
  428   0.178973      -3.569509      -3.822518    2.4094e+01    2.7883e-01
  429   0.178976      -3.569996      -3.823651    2.4118e+01    2.7882e-01
  430   0.178975      -3.570483      -3.824781    2.4141e+01    2.7882e-01
  431   0.178976      -3.570972      -3.825909    2.4164e+01    2.7881e-01
  432   0.178976      -3.571461      -3.827034    2.4187e+01    2.7881e-01
  433   0.178976      -3.571952      -3.828157    2.4210e+01    2.7881e-01
  434   0.178976      -3.572443      -3.829277    2.4232e+01    2.7880e-01
  435   0.178977      -3.572935      -3.830395    2.4254e+01    2.7880e-01
  436   0.178977      -3.573427      -3.831510    2.4276e+01    2.7879e-01
  437   0.178978      -3.573921      -3.832622    2.4298e+01    2.7879e-01
  438   0.178978      -3.574415      -3.833731    2.4319e+01    2.7879e-01
  439   0.178978      -3.574910      -3.834838    2.4340e+01    2.7878e-01

---------------------- Local Time Stepping Summary ----------------------
MG level: 0 -> Min. DT: 0.0001233. Max. DT: 0.9062. CFL: 2.5.
MG level: 1 -> Min. DT: 0.0001945. Max. DT: 1.385. CFL: 2.03.
MG level: 2 -> Min. DT: 0.0002591. Max. DT: 1.852. CFL: 1.637.
MG level: 3 -> Min. DT: 0.0002284. Max. DT: 2.372. CFL: 1.304.
-------------------------------------------------------------------------

log10[Maximum residual]: -2.032.
Maximum residual point 340, located at (0.9999, -0.0003801).

 Iter    Time(s)   Res[Psi_Rho]     Res[Psi_E]      Sens_Geo      Sens_AoA
  440   0.178979      -3.575406      -3.835942    2.4361e+01    2.7878e-01
  441   0.178979      -3.575903      -3.837043    2.4382e+01    2.7877e-01
  442   0.178979      -3.576401      -3.838142    2.4402e+01    2.7877e-01
  443   0.178979      -3.576899      -3.839237    2.4422e+01    2.7877e-01
  444   0.178979      -3.577398      -3.840330    2.4441e+01    2.7876e-01
  445   0.178978      -3.577898      -3.841420    2.4461e+01    2.7876e-01
  446   0.178979      -3.578399      -3.842507    2.4480e+01    2.7875e-01
  447   0.178978      -3.578900      -3.843592    2.4499e+01    2.7875e-01
  448   0.178978      -3.579402      -3.844673    2.4518e+01    2.7874e-01
  449   0.178977      -3.579905      -3.845751    2.4536e+01    2.7874e-01
  450   0.178977      -3.580409      -3.846827    2.4554e+01    2.7874e-01
  451   0.178978      -3.580914      -3.847899    2.4572e+01    2.7873e-01
  452   0.178978      -3.581419      -3.848969    2.4590e+01    2.7873e-01
  453   0.178977      -3.581925      -3.850035    2.4607e+01    2.7872e-01
  454   0.178977      -3.582432      -3.851099    2.4625e+01    2.7872e-01
  455   0.178976      -3.582939      -3.852159    2.4641e+01    2.7871e-01
  456   0.178975      -3.583448      -3.853217    2.4658e+01    2.7871e-01
  457   0.178978      -3.583957      -3.854271    2.4675e+01    2.7871e-01
  458   0.178977      -3.584466      -3.855322    2.4691e+01    2.7870e-01
  459   0.178977      -3.584977      -3.856371    2.4707e+01    2.7870e-01
  460   0.178977      -3.585488      -3.857416    2.4722e+01    2.7869e-01
  461   0.178977      -3.586000      -3.858458    2.4738e+01    2.7869e-01
  462   0.178977      -3.586513      -3.859497    2.4753e+01    2.7868e-01
  463   0.178977      -3.587026      -3.860533    2.4768e+01    2.7868e-01
  464   0.178976      -3.587540      -3.861565    2.4782e+01    2.7868e-01
  465   0.178976      -3.588055      -3.862595    2.4797e+01    2.7867e-01
  466   0.178976      -3.588570      -3.863621    2.4811e+01    2.7867e-01
  467   0.178975      -3.589087      -3.864644    2.4825e+01    2.7866e-01
  468   0.178978      -3.589603      -3.865664    2.4839e+01    2.7866e-01
  469   0.178978      -3.590121      -3.866681    2.4852e+01    2.7865e-01
  470   0.178978      -3.590639      -3.867694    2.4865e+01    2.7865e-01
  471   0.178978      -3.591158      -3.868704    2.4878e+01    2.7865e-01
  472   0.178977      -3.591678      -3.869711    2.4891e+01    2.7864e-01
  473   0.178977      -3.592198      -3.870715    2.4904e+01    2.7864e-01
  474   0.178978      -3.592719      -3.871716    2.4916e+01    2.7863e-01
  475   0.178978      -3.593240      -3.872713    2.4928e+01    2.7863e-01
  476   0.178978      -3.593762      -3.873707    2.4940e+01    2.7862e-01
  477   0.178977      -3.594285      -3.874698    2.4952e+01    2.7862e-01
  478   0.178977      -3.594809      -3.875685    2.4963e+01    2.7861e-01
  479   0.178978      -3.595333      -3.876670    2.4974e+01    2.7861e-01

---------------------- Local Time Stepping Summary ----------------------
MG level: 0 -> Min. DT: 0.0001233. Max. DT: 0.9062. CFL: 2.5.
MG level: 1 -> Min. DT: 0.0001945. Max. DT: 1.385. CFL: 2.03.
MG level: 2 -> Min. DT: 0.0002591. Max. DT: 1.852. CFL: 1.637.
MG level: 3 -> Min. DT: 0.0002284. Max. DT: 2.372. CFL: 1.304.
-------------------------------------------------------------------------

log10[Maximum residual]: -2.048.
Maximum residual point 340, located at (0.9999, -0.0003801).

 Iter    Time(s)   Res[Psi_Rho]     Res[Psi_E]      Sens_Geo      Sens_AoA
  480   0.178978      -3.595857      -3.877651    2.4985e+01    2.7860e-01
  481   0.178978      -3.596383      -3.878628    2.4996e+01    2.7860e-01
  482   0.178977      -3.596909      -3.879603    2.5006e+01    2.7860e-01
  483   0.178977      -3.597435      -3.880574    2.5016e+01    2.7859e-01
  484   0.178976      -3.597962      -3.881542    2.5026e+01    2.7859e-01
  485   0.178978      -3.598490      -3.882506    2.5036e+01    2.7858e-01
  486   0.178977      -3.599018      -3.883467    2.5046e+01    2.7858e-01
  487   0.178978      -3.599547      -3.884425    2.5055e+01    2.7857e-01
  488   0.178979      -3.600077      -3.885380    2.5064e+01    2.7857e-01
  489   0.178979      -3.600607      -3.886331    2.5073e+01    2.7856e-01
  490   0.178979      -3.601137      -3.887279    2.5082e+01    2.7856e-01
  491   0.178979      -3.601669      -3.888224    2.5090e+01    2.7855e-01
  492   0.178978      -3.602200      -3.889165    2.5098e+01    2.7855e-01
  493   0.178978      -3.602733      -3.890104    2.5106e+01    2.7855e-01
  494   0.178978      -3.603266      -3.891039    2.5114e+01    2.7854e-01
  495   0.178979      -3.603799      -3.891970    2.5122e+01    2.7854e-01
  496   0.178980      -3.604333      -3.892898    2.5129e+01    2.7853e-01
  497   0.178980      -3.604868      -3.893823    2.5136e+01    2.7853e-01
  498   0.178980      -3.605403      -3.894745    2.5143e+01    2.7852e-01
  499   0.178980      -3.605938      -3.895664    2.5150e+01    2.7852e-01
  500   0.178980      -3.606474      -3.896579    2.5157e+01    2.7851e-01

-------------------------- File Output Summary --------------------------
Writing comma-separated values (CSV) surface files.
Merging connectivities in the Master node.
Merging coordinates in the Master node.
Merging solution in the Master node.
Writing SU2 native restart file.
Writing Paraview ASCII volume solution file.
Writing Paraview ASCII surface solution file.
-------------------------------------------------------------------------

  501   0.179107      -3.607011      -3.897491    2.5163e+01    2.7851e-01
  502   0.179106      -3.607548      -3.898399    2.5169e+01    2.7850e-01
  503   0.179105      -3.608085      -3.899305    2.5175e+01    2.7850e-01
  504   0.179104      -3.608624      -3.900207    2.5181e+01    2.7849e-01
  505   0.179104      -3.609162      -3.901106    2.5186e+01    2.7849e-01
  506   0.179103      -3.609701      -3.902002    2.5192e+01    2.7849e-01
  507   0.179104      -3.610241      -3.902894    2.5197e+01    2.7848e-01
  508   0.179103      -3.610781      -3.903784    2.5202e+01    2.7848e-01
  509   0.179103      -3.611321      -3.904670    2.5207e+01    2.7847e-01
  510   0.179102      -3.611862      -3.905553    2.5211e+01    2.7847e-01
  511   0.179102      -3.612403      -3.906433    2.5215e+01    2.7846e-01
  512   0.179102      -3.612945      -3.907309    2.5220e+01    2.7846e-01
  513   0.179102      -3.613487      -3.908183    2.5223e+01    2.7845e-01
  514   0.179100      -3.614030      -3.909053    2.5227e+01    2.7845e-01
  515   0.179102      -3.614573      -3.909920    2.5231e+01    2.7844e-01
  516   0.179101      -3.615117      -3.910784    2.5234e+01    2.7844e-01
  517   0.179100      -3.615661      -3.911645    2.5237e+01    2.7843e-01
  518   0.179102      -3.616205      -3.912503    2.5240e+01    2.7843e-01
  519   0.179101      -3.616750      -3.913358    2.5243e+01    2.7842e-01

---------------------- Local Time Stepping Summary ----------------------
MG level: 0 -> Min. DT: 0.0001233. Max. DT: 0.9062. CFL: 2.5.
MG level: 1 -> Min. DT: 0.0001945. Max. DT: 1.385. CFL: 2.03.
MG level: 2 -> Min. DT: 0.0002591. Max. DT: 1.852. CFL: 1.637.
MG level: 3 -> Min. DT: 0.0002284. Max. DT: 2.372. CFL: 1.304.
-------------------------------------------------------------------------

log10[Maximum residual]: -2.064.
Maximum residual point 340, located at (0.9999, -0.0003801).

 Iter    Time(s)   Res[Psi_Rho]     Res[Psi_E]      Sens_Geo      Sens_AoA
  520   0.179100      -3.617295      -3.914210    2.5246e+01    2.7842e-01
  521   0.179099      -3.617841      -3.915058    2.5248e+01    2.7841e-01
  522   0.179098      -3.618387      -3.915904    2.5250e+01    2.7841e-01
  523   0.179098      -3.618933      -3.916747    2.5252e+01    2.7840e-01
  524   0.179099      -3.619480      -3.917586    2.5254e+01    2.7840e-01
  525   0.179098      -3.620027      -3.918423    2.5256e+01    2.7840e-01
  526   0.179098      -3.620574      -3.919257    2.5257e+01    2.7839e-01
  527   0.179097      -3.621122      -3.920087    2.5259e+01    2.7839e-01
  528   0.179097      -3.621670      -3.920915    2.5260e+01    2.7838e-01
  529   0.179099      -3.622219      -3.921740    2.5261e+01    2.7838e-01
  530   0.179098      -3.622768      -3.922562    2.5262e+01    2.7837e-01
  531   0.179097      -3.623317      -3.923381    2.5262e+01    2.7837e-01
  532   0.179097      -3.623867      -3.924198    2.5263e+01    2.7836e-01
  533   0.179097      -3.624417      -3.925011    2.5263e+01    2.7836e-01
  534   0.179096      -3.624967      -3.925821    2.5263e+01    2.7835e-01
  535   0.179097      -3.625517      -3.926629    2.5263e+01    2.7835e-01
  536   0.179096      -3.626068      -3.927434    2.5263e+01    2.7834e-01
  537   0.179096      -3.626620      -3.928236    2.5262e+01    2.7834e-01
  538   0.179095      -3.627171      -3.929036    2.5262e+01    2.7833e-01
  539   0.179095      -3.627723      -3.929833    2.5261e+01    2.7833e-01
  540   0.179096      -3.628275      -3.930627    2.5260e+01    2.7832e-01
  541   0.179096      -3.628827      -3.931418    2.5259e+01    2.7832e-01
  542   0.179095      -3.629380      -3.932207    2.5258e+01    2.7831e-01
  543   0.179095      -3.629933      -3.932993    2.5256e+01    2.7831e-01
  544   0.179094      -3.630486      -3.933776    2.5255e+01    2.7830e-01
  545   0.179093      -3.631040      -3.934557    2.5253e+01    2.7830e-01
  546   0.179095      -3.631594      -3.935336    2.5251e+01    2.7829e-01
  547   0.179094      -3.632148      -3.936111    2.5249e+01    2.7829e-01
  548   0.179093      -3.632702      -3.936885    2.5247e+01    2.7828e-01
  549   0.179093      -3.633257      -3.937656    2.5244e+01    2.7828e-01
  550   0.179092      -3.633811      -3.938424    2.5242e+01    2.7828e-01
  551   0.179092      -3.634366      -3.939190    2.5239e+01    2.7827e-01
  552   0.179092      -3.634922      -3.939953    2.5236e+01    2.7827e-01
  553   0.179091      -3.635477      -3.940714    2.5233e+01    2.7826e-01
  554   0.179092      -3.636033      -3.941473    2.5230e+01    2.7826e-01
  555   0.179092      -3.636589      -3.942229    2.5227e+01    2.7825e-01
  556   0.179092      -3.637145      -3.942983    2.5223e+01    2.7825e-01
  557   0.179093      -3.637702      -3.943735    2.5219e+01    2.7824e-01
  558   0.179092      -3.638258      -3.944484    2.5216e+01    2.7824e-01
  559   0.179091      -3.638815      -3.945231    2.5212e+01    2.7823e-01

---------------------- Local Time Stepping Summary ----------------------
MG level: 0 -> Min. DT: 0.0001233. Max. DT: 0.9062. CFL: 2.5.
MG level: 1 -> Min. DT: 0.0001945. Max. DT: 1.385. CFL: 2.03.
MG level: 2 -> Min. DT: 0.0002591. Max. DT: 1.852. CFL: 1.637.
MG level: 3 -> Min. DT: 0.0002284. Max. DT: 2.372. CFL: 1.304.
-------------------------------------------------------------------------

log10[Maximum residual]: -2.082.
Maximum residual point 340, located at (0.9999, -0.0003801).

 Iter    Time(s)   Res[Psi_Rho]     Res[Psi_E]      Sens_Geo      Sens_AoA
  560   0.179091      -3.639372      -3.945976    2.5208e+01    2.7823e-01
  561   0.179093      -3.639929      -3.946719    2.5204e+01    2.7822e-01
  562   0.179092      -3.640487      -3.947459    2.5199e+01    2.7822e-01
  563   0.179093      -3.641044      -3.948198    2.5195e+01    2.7821e-01
  564   0.179092      -3.641602      -3.948934    2.5190e+01    2.7821e-01
  565   0.179091      -3.642160      -3.949668    2.5185e+01    2.7820e-01
  566   0.179091      -3.642718      -3.950400    2.5180e+01    2.7820e-01
  567   0.179090      -3.643276      -3.951130    2.5175e+01    2.7819e-01
  568   0.179092      -3.643835      -3.951858    2.5170e+01    2.7819e-01
  569   0.179091      -3.644394      -3.952584    2.5165e+01    2.7818e-01
  570   0.179090      -3.644952      -3.953309    2.5159e+01    2.7818e-01
  571   0.179092      -3.645511      -3.954031    2.5154e+01    2.7817e-01
  572   0.179091      -3.646070      -3.954751    2.5148e+01    2.7817e-01
  573   0.179092      -3.646630      -3.955469    2.5142e+01    2.7816e-01
  574   0.179093      -3.647189      -3.956186    2.5136e+01    2.7816e-01
  575   0.179092      -3.647749      -3.956901    2.5130e+01    2.7815e-01
  576   0.179091      -3.648308      -3.957614    2.5124e+01    2.7815e-01
  577   0.179090      -3.648868      -3.958325    2.5117e+01    2.7814e-01
  578   0.179090      -3.649428      -3.959034    2.5111e+01    2.7814e-01
  579   0.179090      -3.649988      -3.959742    2.5104e+01    2.7813e-01
  580   0.179090      -3.650548      -3.960448    2.5097e+01    2.7813e-01
  581   0.179089      -3.651108      -3.961153    2.5090e+01    2.7812e-01
  582   0.179089      -3.651669      -3.961855    2.5083e+01    2.7812e-01
  583   0.179088      -3.652229      -3.962556    2.5076e+01    2.7811e-01
  584   0.179089      -3.652790      -3.963256    2.5069e+01    2.7811e-01
  585   0.179090      -3.653350      -3.963954    2.5061e+01    2.7810e-01
  586   0.179089      -3.653911      -3.964651    2.5054e+01    2.7810e-01
  587   0.179088      -3.654472      -3.965346    2.5046e+01    2.7810e-01
  588   0.179088      -3.655033      -3.966039    2.5038e+01    2.7809e-01
  589   0.179089      -3.655594      -3.966732    2.5031e+01    2.7809e-01
  590   0.179088      -3.656155      -3.967422    2.5023e+01    2.7808e-01
  591   0.179089      -3.656716      -3.968112    2.5014e+01    2.7808e-01
  592   0.179088      -3.657278      -3.968800    2.5006e+01    2.7807e-01
  593   0.179087      -3.657839      -3.969486    2.4998e+01    2.7807e-01
  594   0.179087      -3.658400      -3.970172    2.4989e+01    2.7806e-01
  595   0.179086      -3.658962      -3.970856    2.4981e+01    2.7806e-01
  596   0.179087      -3.659524      -3.971539    2.4972e+01    2.7805e-01
  597   0.179086      -3.660085      -3.972221    2.4963e+01    2.7805e-01
  598   0.179086      -3.660647      -3.972901    2.4955e+01    2.7804e-01
  599   0.179086      -3.661209      -3.973581    2.4946e+01    2.7804e-01

---------------------- Local Time Stepping Summary ----------------------
MG level: 0 -> Min. DT: 0.0001233. Max. DT: 0.9062. CFL: 2.5.
MG level: 1 -> Min. DT: 0.0001945. Max. DT: 1.385. CFL: 2.03.
MG level: 2 -> Min. DT: 0.0002591. Max. DT: 1.852. CFL: 1.637.
MG level: 3 -> Min. DT: 0.0002284. Max. DT: 2.372. CFL: 1.304.
-------------------------------------------------------------------------

log10[Maximum residual]: -2.1.
Maximum residual point 340, located at (0.9999, -0.0003801).

 Iter    Time(s)   Res[Psi_Rho]     Res[Psi_E]      Sens_Geo      Sens_AoA
  600   0.179085      -3.661770      -3.974259    2.4936e+01    2.7803e-01
  601   0.179085      -3.662332      -3.974936    2.4927e+01    2.7803e-01
  602   0.179087      -3.662894      -3.975612    2.4918e+01    2.7802e-01
  603   0.179086      -3.663456      -3.976287    2.4908e+01    2.7802e-01
  604   0.179085      -3.664018      -3.976961    2.4899e+01    2.7801e-01
  605   0.179086      -3.664580      -3.977635    2.4889e+01    2.7801e-01
  606   0.179086      -3.665142      -3.978307    2.4880e+01    2.7800e-01
  607   0.179087      -3.665704      -3.978978    2.4870e+01    2.7800e-01
  608   0.179087      -3.666266      -3.979648    2.4860e+01    2.7799e-01
  609   0.179086      -3.666828      -3.980318    2.4850e+01    2.7799e-01
  610   0.179087      -3.667390      -3.980986    2.4840e+01    2.7798e-01
  611   0.179087      -3.667953      -3.981654    2.4829e+01    2.7798e-01
  612   0.179086      -3.668515      -3.982321    2.4819e+01    2.7797e-01
  613   0.179087      -3.669077      -3.982987    2.4809e+01    2.7797e-01
  614   0.179086      -3.669639      -3.983653    2.4798e+01    2.7796e-01
  615   0.179085      -3.670201      -3.984317    2.4787e+01    2.7796e-01
  616   0.179085      -3.670764      -3.984981    2.4777e+01    2.7795e-01
  617   0.179085      -3.671326      -3.985645    2.4766e+01    2.7795e-01
  618   0.179085      -3.671888      -3.986307    2.4755e+01    2.7794e-01
  619   0.179085      -3.672450      -3.986970    2.4744e+01    2.7794e-01
  620   0.179084      -3.673013      -3.987631    2.4733e+01    2.7793e-01
  621   0.179084      -3.673575      -3.988292    2.4722e+01    2.7793e-01
  622   0.179084      -3.674137      -3.988953    2.4711e+01    2.7792e-01
  623   0.179084      -3.674700      -3.989613    2.4699e+01    2.7792e-01
  624   0.179085      -3.675262      -3.990272    2.4688e+01    2.7791e-01
  625   0.179084      -3.675824      -3.990931    2.4676e+01    2.7791e-01
  626   0.179084      -3.676386      -3.991590    2.4665e+01    2.7790e-01
  627   0.179085      -3.676948      -3.992248    2.4653e+01    2.7790e-01
  628   0.179084      -3.677511      -3.992906    2.4641e+01    2.7790e-01
  629   0.179084      -3.678073      -3.993563    2.4630e+01    2.7789e-01
  630   0.179085      -3.678635      -3.994220    2.4618e+01    2.7789e-01
  631   0.179084      -3.679197      -3.994877    2.4606e+01    2.7788e-01
  632   0.179083      -3.679759      -3.995533    2.4594e+01    2.7788e-01
  633   0.179083      -3.680321      -3.996190    2.4581e+01    2.7787e-01
  634   0.179082      -3.680883      -3.996846    2.4569e+01    2.7787e-01
  635   0.179083      -3.681445      -3.997502    2.4557e+01    2.7786e-01
  636   0.179083      -3.682007      -3.998157    2.4545e+01    2.7786e-01
  637   0.179083      -3.682569      -3.998813    2.4532e+01    2.7785e-01
  638   0.179084      -3.683131      -3.999468    2.4520e+01    2.7785e-01
  639   0.179084      -3.683693      -4.000123    2.4507e+01    2.7784e-01

---------------------- Local Time Stepping Summary ----------------------
MG level: 0 -> Min. DT: 0.0001233. Max. DT: 0.9062. CFL: 2.5.
MG level: 1 -> Min. DT: 0.0001945. Max. DT: 1.385. CFL: 2.03.
MG level: 2 -> Min. DT: 0.0002591. Max. DT: 1.852. CFL: 1.637.
MG level: 3 -> Min. DT: 0.0002284. Max. DT: 2.372. CFL: 1.304.
-------------------------------------------------------------------------

log10[Maximum residual]: -2.118.
Maximum residual point 340, located at (0.9999, -0.0003801).

 Iter    Time(s)   Res[Psi_Rho]     Res[Psi_E]      Sens_Geo      Sens_AoA
  640   0.179084      -3.684255      -4.000778    2.4494e+01    2.7784e-01
  641   0.179085      -3.684817      -4.001434    2.4482e+01    2.7783e-01
  642   0.179085      -3.685379      -4.002089    2.4469e+01    2.7783e-01
  643   0.179084      -3.685940      -4.002744    2.4456e+01    2.7782e-01
  644   0.179084      -3.686502      -4.003399    2.4443e+01    2.7782e-01
  645   0.179084      -3.687064      -4.004054    2.4430e+01    2.7781e-01
  646   0.179084      -3.687626      -4.004709    2.4417e+01    2.7781e-01
  647   0.179085      -3.688187      -4.005364    2.4404e+01    2.7780e-01
  648   0.179084      -3.688749      -4.006019    2.4391e+01    2.7780e-01
  649   0.179084      -3.689310      -4.006674    2.4378e+01    2.7779e-01
  650   0.179083      -3.689872      -4.007330    2.4364e+01    2.7779e-01
  651   0.179083      -3.690433      -4.007985    2.4351e+01    2.7778e-01
  652   0.179084      -3.690994      -4.008641    2.4337e+01    2.7778e-01
  653   0.179083      -3.691556      -4.009297    2.4324e+01    2.7777e-01
  654   0.179083      -3.692117      -4.009953    2.4310e+01    2.7777e-01
  655   0.179083      -3.692678      -4.010610    2.4297e+01    2.7776e-01
  656   0.179083      -3.693239      -4.011266    2.4283e+01    2.7776e-01
  657   0.179083      -3.693800      -4.011923    2.4269e+01    2.7775e-01
  658   0.179084      -3.694361      -4.012581    2.4255e+01    2.7775e-01
  659   0.179083      -3.694922      -4.013238    2.4242e+01    2.7775e-01
  660   0.179083      -3.695483      -4.013896    2.4228e+01    2.7774e-01
  661   0.179082      -3.696044      -4.014554    2.4214e+01    2.7774e-01
  662   0.179082      -3.696605      -4.015213    2.4200e+01    2.7773e-01
  663   0.179084      -3.697166      -4.015872    2.4186e+01    2.7773e-01
  664   0.179083      -3.697726      -4.016532    2.4172e+01    2.7772e-01
  665   0.179082      -3.698287      -4.017191    2.4157e+01    2.7772e-01
  666   0.179083      -3.698847      -4.017852    2.4143e+01    2.7771e-01
  667   0.179083      -3.699408      -4.018513    2.4129e+01    2.7771e-01
  668   0.179082      -3.699968      -4.019174    2.4115e+01    2.7770e-01
  669   0.179084      -3.700529      -4.019836    2.4100e+01    2.7770e-01
  670   0.179083      -3.701089      -4.020498    2.4086e+01    2.7769e-01
  671   0.179082      -3.701649      -4.021161    2.4072e+01    2.7769e-01
  672   0.179082      -3.702209      -4.021824    2.4057e+01    2.7768e-01
  673   0.179082      -3.702769      -4.022488    2.4042e+01    2.7768e-01
  674   0.179083      -3.703330      -4.023153    2.4028e+01    2.7767e-01
  675   0.179083      -3.703889      -4.023818    2.4013e+01    2.7767e-01
  676   0.179082      -3.704449      -4.024484    2.3999e+01    2.7766e-01
  677   0.179082      -3.705009      -4.025151    2.3984e+01    2.7766e-01
  678   0.179082      -3.705569      -4.025818    2.3969e+01    2.7765e-01
  679   0.179082      -3.706129      -4.026486    2.3954e+01    2.7765e-01

---------------------- Local Time Stepping Summary ----------------------
MG level: 0 -> Min. DT: 0.0001233. Max. DT: 0.9062. CFL: 2.5.
MG level: 1 -> Min. DT: 0.0001945. Max. DT: 1.385. CFL: 2.03.
MG level: 2 -> Min. DT: 0.0002591. Max. DT: 1.852. CFL: 1.637.
MG level: 3 -> Min. DT: 0.0002284. Max. DT: 2.372. CFL: 1.304.
-------------------------------------------------------------------------

log10[Maximum residual]: -2.137.
Maximum residual point 340, located at (0.9999, -0.0003801).

 Iter    Time(s)   Res[Psi_Rho]     Res[Psi_E]      Sens_Geo      Sens_AoA
  680   0.179083      -3.706688      -4.027154    2.3940e+01    2.7764e-01
  681   0.179082      -3.707248      -4.027823    2.3925e+01    2.7764e-01
  682   0.179083      -3.707807      -4.028493    2.3910e+01    2.7764e-01
  683   0.179083      -3.708367      -4.029164    2.3895e+01    2.7763e-01
  684   0.179082      -3.708926      -4.029836    2.3880e+01    2.7763e-01
  685   0.179082      -3.709485      -4.030508    2.3865e+01    2.7762e-01
  686   0.179083      -3.710045      -4.031181    2.3850e+01    2.7762e-01
  687   0.179082      -3.710604      -4.031855    2.3835e+01    2.7761e-01
  688   0.179082      -3.711163      -4.032529    2.3820e+01    2.7761e-01
  689   0.179082      -3.711722      -4.033205    2.3804e+01    2.7760e-01
  690   0.179082      -3.712281      -4.033881    2.3789e+01    2.7760e-01
  691   0.179083      -3.712840      -4.034559    2.3774e+01    2.7759e-01
  692   0.179082      -3.713398      -4.035237    2.3759e+01    2.7759e-01
  693   0.179082      -3.713957      -4.035916    2.3744e+01    2.7758e-01
  694   0.179082      -3.714516      -4.036596    2.3728e+01    2.7758e-01
  695   0.179082      -3.715074      -4.037276    2.3713e+01    2.7757e-01
  696   0.179082      -3.715633      -4.037958    2.3698e+01    2.7757e-01
  697   0.179083      -3.716191      -4.038641    2.3682e+01    2.7756e-01
  698   0.179082      -3.716750      -4.039324    2.3667e+01    2.7756e-01
  699   0.179082      -3.717308      -4.040009    2.3651e+01    2.7756e-01
  700   0.179081      -3.717866      -4.040695    2.3636e+01    2.7755e-01
  701   0.179081      -3.718424      -4.041381    2.3621e+01    2.7755e-01
  702   0.179082      -3.718982      -4.042069    2.3605e+01    2.7754e-01
  703   0.179082      -3.719540      -4.042758    2.3589e+01    2.7754e-01
  704   0.179081      -3.720098      -4.043447    2.3574e+01    2.7753e-01
  705   0.179082      -3.720656      -4.044138    2.3558e+01    2.7753e-01
  706   0.179082      -3.721214      -4.044830    2.3543e+01    2.7752e-01
  707   0.179082      -3.721772      -4.045523    2.3527e+01    2.7752e-01
  708   0.179083      -3.722329      -4.046217    2.3512e+01    2.7751e-01
  709   0.179082      -3.722887      -4.046912    2.3496e+01    2.7751e-01
  710   0.179083      -3.723444      -4.047608    2.3480e+01    2.7750e-01
  711   0.179083      -3.724002      -4.048305    2.3465e+01    2.7750e-01
  712   0.179083      -3.724559      -4.049003    2.3449e+01    2.7749e-01
  713   0.179083      -3.725117      -4.049703    2.3433e+01    2.7749e-01
  714   0.179083      -3.725674      -4.050403    2.3417e+01    2.7749e-01
  715   0.179082      -3.726231      -4.051105    2.3402e+01    2.7748e-01
  716   0.179083      -3.726788      -4.051808    2.3386e+01    2.7748e-01
  717   0.179083      -3.727345      -4.052512    2.3370e+01    2.7747e-01
  718   0.179083      -3.727902      -4.053218    2.3354e+01    2.7747e-01
  719   0.179084      -3.728459      -4.053924    2.3339e+01    2.7746e-01

---------------------- Local Time Stepping Summary ----------------------
MG level: 0 -> Min. DT: 0.0001233. Max. DT: 0.9062. CFL: 2.5.
MG level: 1 -> Min. DT: 0.0001945. Max. DT: 1.385. CFL: 2.03.
MG level: 2 -> Min. DT: 0.0002591. Max. DT: 1.852. CFL: 1.637.
MG level: 3 -> Min. DT: 0.0002284. Max. DT: 2.372. CFL: 1.304.
-------------------------------------------------------------------------

log10[Maximum residual]: -2.156.
Maximum residual point 340, located at (0.9999, -0.0003801).

 Iter    Time(s)   Res[Psi_Rho]     Res[Psi_E]      Sens_Geo      Sens_AoA
  720   0.179084      -3.729016      -4.054632    2.3323e+01    2.7746e-01
  721   0.179084      -3.729573      -4.055341    2.3307e+01    2.7745e-01
  722   0.179084      -3.730130      -4.056051    2.3291e+01    2.7745e-01
  723   0.179084      -3.730686      -4.056763    2.3275e+01    2.7744e-01
  724   0.179084      -3.731243      -4.057475    2.3259e+01    2.7744e-01
  725   0.179085      -3.731799      -4.058189    2.3244e+01    2.7743e-01
  726   0.179085      -3.732356      -4.058905    2.3228e+01    2.7743e-01
  727   0.179085      -3.732912      -4.059621    2.3212e+01    2.7743e-01
  728   0.179085      -3.733469      -4.060339    2.3196e+01    2.7742e-01
  729   0.179085      -3.734025      -4.061058    2.3180e+01    2.7742e-01
  730   0.179086      -3.734581      -4.061778    2.3164e+01    2.7741e-01
  731   0.179086      -3.735137      -4.062500    2.3148e+01    2.7741e-01
  732   0.179085      -3.735694      -4.063223    2.3132e+01    2.7740e-01
  733   0.179085      -3.736250      -4.063947    2.3116e+01    2.7740e-01
  734   0.179084      -3.736806      -4.064673    2.3100e+01    2.7739e-01
  735   0.179084      -3.737362      -4.065400    2.3085e+01    2.7739e-01
  736   0.179085      -3.737917      -4.066128    2.3069e+01    2.7738e-01
  737   0.179084      -3.738473      -4.066858    2.3053e+01    2.7738e-01
  738   0.179084      -3.739029      -4.067589    2.3037e+01    2.7738e-01
  739   0.179085      -3.739585      -4.068321    2.3021e+01    2.7737e-01
  740   0.179085      -3.740141      -4.069055    2.3005e+01    2.7737e-01
  741   0.179085      -3.740696      -4.069790    2.2989e+01    2.7736e-01
  742   0.179085      -3.741252      -4.070526    2.2973e+01    2.7736e-01
  743   0.179085      -3.741807      -4.071264    2.2957e+01    2.7735e-01
  744   0.179085      -3.742363      -4.072004    2.2941e+01    2.7735e-01
  745   0.179085      -3.742918      -4.072744    2.2925e+01    2.7734e-01
  746   0.179085      -3.743474      -4.073486    2.2909e+01    2.7734e-01
  747   0.179086      -3.744029      -4.074230    2.2894e+01    2.7733e-01
  748   0.179086      -3.744584      -4.074975    2.2878e+01    2.7733e-01
  749   0.179086      -3.745139      -4.075721    2.2862e+01    2.7733e-01
  750   0.179086      -3.745695      -4.076469    2.2846e+01    2.7732e-01

-------------------------- File Output Summary --------------------------
Writing comma-separated values (CSV) surface files.
Merging connectivities in the Master node.
Merging coordinates in the Master node.
Merging solution in the Master node.
Writing SU2 native restart file.
Writing Paraview ASCII volume solution file.
Writing Paraview ASCII surface solution file.
-------------------------------------------------------------------------

  751   0.179170      -3.746250      -4.077218    2.2830e+01    2.7732e-01
  752   0.179171      -3.746805      -4.077969    2.2814e+01    2.7731e-01
  753   0.179170      -3.747360      -4.078721    2.2798e+01    2.7731e-01
  754   0.179170      -3.747915      -4.079475    2.2782e+01    2.7730e-01
  755   0.179169      -3.748470      -4.080230    2.2767e+01    2.7730e-01
  756   0.179169      -3.749025      -4.080987    2.2751e+01    2.7729e-01
  757   0.179169      -3.749580      -4.081745    2.2735e+01    2.7729e-01
  758   0.179170      -3.750134      -4.082504    2.2719e+01    2.7729e-01
  759   0.179169      -3.750689      -4.083265    2.2703e+01    2.7728e-01

---------------------- Local Time Stepping Summary ----------------------
MG level: 0 -> Min. DT: 0.0001233. Max. DT: 0.9062. CFL: 2.5.
MG level: 1 -> Min. DT: 0.0001945. Max. DT: 1.385. CFL: 2.03.
MG level: 2 -> Min. DT: 0.0002591. Max. DT: 1.852. CFL: 1.637.
MG level: 3 -> Min. DT: 0.0002284. Max. DT: 2.372. CFL: 1.304.
-------------------------------------------------------------------------

log10[Maximum residual]: -2.176.
Maximum residual point 438, located at (0.9999, 0.0003799).

 Iter    Time(s)   Res[Psi_Rho]     Res[Psi_E]      Sens_Geo      Sens_AoA
  760   0.179169      -3.751244      -4.084028    2.2687e+01    2.7728e-01
  761   0.179170      -3.751799      -4.084791    2.2672e+01    2.7727e-01
  762   0.179170      -3.752353      -4.085557    2.2656e+01    2.7727e-01
  763   0.179170      -3.752908      -4.086324    2.2640e+01    2.7726e-01
  764   0.179170      -3.753463      -4.087092    2.2624e+01    2.7726e-01
  765   0.179170      -3.754017      -4.087862    2.2609e+01    2.7725e-01
  766   0.179170      -3.754572      -4.088634    2.2593e+01    2.7725e-01
  767   0.179170      -3.755126      -4.089407    2.2577e+01    2.7725e-01
  768   0.179170      -3.755681      -4.090181    2.2561e+01    2.7724e-01
  769   0.179171      -3.756235      -4.090957    2.2546e+01    2.7724e-01
  770   0.179170      -3.756790      -4.091735    2.2530e+01    2.7723e-01
  771   0.179169      -3.757344      -4.092514    2.2514e+01    2.7723e-01
  772   0.179169      -3.757899      -4.093294    2.2499e+01    2.7722e-01
  773   0.179170      -3.758453      -4.094076    2.2483e+01    2.7722e-01
  774   0.179170      -3.759007      -4.094860    2.2468e+01    2.7721e-01
  775   0.179170      -3.759561      -4.095645    2.2452e+01    2.7721e-01
  776   0.179170      -3.760116      -4.096432    2.2436e+01    2.7721e-01
[...]
 1913   0.179244      -4.411209      -4.721785    2.5436e+01    2.7464e-01
 1914   0.179243      -4.411743      -4.722102    2.5442e+01    2.7464e-01
 1915   0.179243      -4.412276      -4.722418    2.5448e+01    2.7464e-01
 1916   0.179243      -4.412810      -4.722736    2.5454e+01    2.7464e-01
 1917   0.179243      -4.413343      -4.723053    2.5460e+01    2.7464e-01
 1918   0.179243      -4.413877      -4.723370    2.5466e+01    2.7463e-01
 1919   0.179243      -4.414410      -4.723688    2.5472e+01    2.7463e-01

---------------------- Local Time Stepping Summary ----------------------
MG level: 0 -> Min. DT: 0.0001233. Max. DT: 0.9062. CFL: 2.5.
MG level: 1 -> Min. DT: 0.0001945. Max. DT: 1.385. CFL: 2.03.
MG level: 2 -> Min. DT: 0.0002591. Max. DT: 1.852. CFL: 1.637.
MG level: 3 -> Min. DT: 0.0002284. Max. DT: 2.372. CFL: 1.304.
-------------------------------------------------------------------------

log10[Maximum residual]: -2.97.
Maximum residual point 0, located at (0.9998, -3.633e-05).

 Iter    Time(s)   Res[Psi_Rho]     Res[Psi_E]      Sens_Geo      Sens_AoA
 1920   0.179243      -4.414943      -4.724006    2.5477e+01    2.7463e-01
 1921   0.179243      -4.415476      -4.724324    2.5483e+01    2.7463e-01
 1922   0.179243      -4.416009      -4.724643    2.5489e+01    2.7463e-01
 1923   0.179243      -4.416541      -4.724961    2.5495e+01    2.7463e-01
 1924   0.179243      -4.417074      -4.725280    2.5501e+01    2.7463e-01
 1925   0.179242      -4.417607      -4.725599    2.5506e+01    2.7463e-01
 1926   0.179242      -4.418139      -4.725918    2.5512e+01    2.7463e-01
 1927   0.179242      -4.418671      -4.726237    2.5518e+01    2.7463e-01
 1928   0.179242      -4.419204      -4.726556    2.5524e+01    2.7463e-01
 1929   0.179242      -4.419736      -4.726876    2.5529e+01    2.7463e-01
 1930   0.179241      -4.420268      -4.727196    2.5535e+01    2.7462e-01
 1931   0.179241      -4.420800      -4.727516    2.5541e+01    2.7462e-01
 1932   0.179242      -4.421331      -4.727836    2.5547e+01    2.7462e-01
 1933   0.179241      -4.421863      -4.728157    2.5552e+01    2.7462e-01
 1934   0.179241      -4.422394      -4.728477    2.5558e+01    2.7462e-01
 1935   0.179241      -4.422926      -4.728798    2.5564e+01    2.7462e-01
 1936   0.179241      -4.423457      -4.729119    2.5569e+01    2.7462e-01
 1937   0.179241      -4.423988      -4.729440    2.5575e+01    2.7462e-01
 1938   0.179241      -4.424520      -4.729761    2.5581e+01    2.7462e-01
 1939   0.179241      -4.425050      -4.730083    2.5587e+01    2.7462e-01
 1940   0.179241      -4.425581      -4.730404    2.5592e+01    2.7462e-01
 1941   0.179241      -4.426112      -4.730726    2.5598e+01    2.7462e-01
 1942   0.179241      -4.426643      -4.731048    2.5603e+01    2.7462e-01
 1943   0.179240      -4.427173      -4.731370    2.5609e+01    2.7461e-01
 1944   0.179240      -4.427704      -4.731692    2.5615e+01    2.7461e-01
 1945   0.179240      -4.428234      -4.732015    2.5620e+01    2.7461e-01
 1946   0.179241      -4.428764      -4.732337    2.5626e+01    2.7461e-01
 1947   0.179240      -4.429294      -4.732660    2.5632e+01    2.7461e-01
 1948   0.179240      -4.429825      -4.732983    2.5637e+01    2.7461e-01
 1949   0.179240      -4.430354      -4.733306    2.5643e+01    2.7461e-01
 1950   0.179240      -4.430884      -4.733629    2.5648e+01    2.7461e-01
 1951   0.179240      -4.431414      -4.733952    2.5654e+01    2.7461e-01
 1952   0.179240      -4.431943      -4.734276    2.5659e+01    2.7461e-01
 1953   0.179240      -4.432473      -4.734599    2.5665e+01    2.7461e-01
 1954   0.179239      -4.433002      -4.734923    2.5670e+01    2.7461e-01
 1955   0.179239      -4.433532      -4.735247    2.5676e+01    2.7461e-01
 1956   0.179239      -4.434061      -4.735571    2.5681e+01    2.7461e-01
 1957   0.179239      -4.434590      -4.735895    2.5687e+01    2.7460e-01
 1958   0.179239      -4.435119      -4.736220    2.5692e+01    2.7460e-01
 1959   0.179239      -4.435648      -4.736544    2.5698e+01    2.7460e-01

---------------------- Local Time Stepping Summary ----------------------
MG level: 0 -> Min. DT: 0.0001233. Max. DT: 0.9062. CFL: 2.5.
MG level: 1 -> Min. DT: 0.0001945. Max. DT: 1.385. CFL: 2.03.
MG level: 2 -> Min. DT: 0.0002591. Max. DT: 1.852. CFL: 1.637.
MG level: 3 -> Min. DT: 0.0002284. Max. DT: 2.372. CFL: 1.304.
-------------------------------------------------------------------------

log10[Maximum residual]: -2.988.
Maximum residual point 0, located at (0.9998, -3.633e-05).

 Iter    Time(s)   Res[Psi_Rho]     Res[Psi_E]      Sens_Geo      Sens_AoA
 1960   0.179239      -4.436176      -4.736869    2.5703e+01    2.7460e-01
 1961   0.179238      -4.436705      -4.737194    2.5709e+01    2.7460e-01
 1962   0.179239      -4.437233      -4.737518    2.5714e+01    2.7460e-01
 1963   0.179238      -4.437762      -4.737843    2.5720e+01    2.7460e-01
 1964   0.179238      -4.438290      -4.738169    2.5725e+01    2.7460e-01
 1965   0.179238      -4.438818      -4.738494    2.5731e+01    2.7460e-01
 1966   0.179238      -4.439346      -4.738819    2.5736e+01    2.7460e-01
 1967   0.179238      -4.439874      -4.739145    2.5742e+01    2.7460e-01
 1968   0.179238      -4.440402      -4.739470    2.5747e+01    2.7460e-01
 1969   0.179238      -4.440930      -4.739796    2.5752e+01    2.7460e-01
 1970   0.179238      -4.441458      -4.740122    2.5758e+01    2.7460e-01
 1971   0.179238      -4.441985      -4.740448    2.5763e+01    2.7459e-01
 1972   0.179237      -4.442513      -4.740774    2.5769e+01    2.7459e-01
 1973   0.179237      -4.443040      -4.741100    2.5774e+01    2.7459e-01
 1974   0.179238      -4.443567      -4.741427    2.5779e+01    2.7459e-01
 1975   0.179237      -4.444094      -4.741753    2.5785e+01    2.7459e-01
 1976   0.179237      -4.444621      -4.742080    2.5790e+01    2.7459e-01
 1977   0.179237      -4.445148      -4.742407    2.5795e+01    2.7459e-01
 1978   0.179237      -4.445675      -4.742733    2.5801e+01    2.7459e-01
 1979   0.179238      -4.446202      -4.743060    2.5806e+01    2.7459e-01
 1980   0.179237      -4.446728      -4.743387    2.5811e+01    2.7459e-01
 1981   0.179237      -4.447255      -4.743714    2.5817e+01    2.7459e-01
 1982   0.179237      -4.447781      -4.744042    2.5822e+01    2.7459e-01
 1983   0.179237      -4.448307      -4.744369    2.5827e+01    2.7459e-01
 1984   0.179237      -4.448833      -4.744696    2.5832e+01    2.7459e-01
 1985   0.179237      -4.449360      -4.745024    2.5838e+01    2.7458e-01
 1986   0.179237      -4.449885      -4.745351    2.5843e+01    2.7458e-01
 1987   0.179237      -4.450411      -4.745679    2.5848e+01    2.7458e-01
 1988   0.179236      -4.450937      -4.746007    2.5854e+01    2.7458e-01
 1989   0.179236      -4.451463      -4.746335    2.5859e+01    2.7458e-01
 1990   0.179236      -4.451988      -4.746663    2.5864e+01    2.7458e-01
 1991   0.179236      -4.452514      -4.746991    2.5869e+01    2.7458e-01
 1992   0.179236      -4.453039      -4.747319    2.5874e+01    2.7458e-01
 1993   0.179236      -4.453564      -4.747647    2.5880e+01    2.7458e-01
 1994   0.179236      -4.454089      -4.747976    2.5885e+01    2.7458e-01
 1995   0.179236      -4.454614      -4.748304    2.5890e+01    2.7458e-01
 1996   0.179237      -4.455139      -4.748632    2.5895e+01    2.7458e-01
 1997   0.179236      -4.455664      -4.748961    2.5900e+01    2.7458e-01
 1998   0.179236      -4.456189      -4.749290    2.5906e+01    2.7458e-01
 1999   0.179236      -4.456713      -4.749618    2.5911e+01    2.7458e-01

-------------------------- File Output Summary --------------------------
Writing comma-separated values (CSV) surface files.
Merging connectivities in the Master node.
Merging coordinates in the Master node.
Merging solution in the Master node.
Writing SU2 native restart file.
Writing Paraview ASCII volume solution file.
Writing Paraview ASCII surface solution file.
-------------------------------------------------------------------------

History file, closed.

------------------------- Solver Postprocessing -------------------------
Deleted CNumerics container.
Deleted CIntegration container.
Deleted CSolver container.
Deleted CIteration container.
Deleted CInterpolator container.
Deleted CTransfer container.
Deleted CGeometry container.
Deleted CFreeFormDefBox class.
Deleted CSurfaceMovement class.
Deleted CVolumetricMovement class.
Deleted CConfig container.
Deleted COutput class.
-------------------------------------------------------------------------

Completed in 358.5560 seconds on 1 core.

------------------------- Exit Success (SU2_CFD) ------------------------


-------------------------------------------------------------------------
|    ___ _   _ ___                                                      |
|   / __| | | |_  )   Release 5.0.0  "Raven"                            |
|   \__ \ |_| |/ /                                                      |
|   |___/\___//___|   Suite (Gradient Projection Code)                  |
|                                                                       |
-------------------------------------------------------------------------
| SU2 Original Developers: Dr. Francisco D. Palacios.                   |
|                          Dr. Thomas D. Economon.                      |
-------------------------------------------------------------------------
| SU2 Developers:                                                       |
| - Prof. Juan J. Alonso's group at Stanford University.                |
| - Prof. Piero Colonna's group at Delft University of Technology.      |
| - Prof. Nicolas R. Gauger's group at Kaiserslautern U. of Technology. |
| - Prof. Alberto Guardone's group at Polytechnic University of Milan.  |
| - Prof. Rafael Palacios' group at Imperial College London.            |
| - Prof. Edwin van der Weide's group at the University of Twente.      |
| - Prof. Vincent Terrapon's group at the University of Liege.          |
-------------------------------------------------------------------------
| Copyright (C) 2012-2017 SU2, the open-source CFD code.                |
|                                                                       |
| SU2 is free software; you can redistribute it and/or                  |
| modify it under the terms of the GNU Lesser General Public            |
| License as published by the Free Software Foundation; either          |
| version 2.1 of the License, or (at your option) any later version.    |
|                                                                       |
| SU2 is distributed in the hope that it will be useful,                |
| but WITHOUT ANY WARRANTY; without even the implied warranty of        |
| MERCHANTABILITY or FITNESS FOR A PARTICULAR PURPOSE. See the GNU      |
| Lesser General Public License for more details.                       |
|                                                                       |
| You should have received a copy of the GNU Lesser General Public      |
| License along with SU2. If not, see <http://www.gnu.org/licenses/>.   |
-------------------------------------------------------------------------

------------------------ Physical Case Definition -----------------------
Input mesh file name: mesh_NACA0012_inv_deform.su2
Input sensitivity file name: surface_adjoint.

-------------------- Surface deformation parameters ---------------------
Design variables definition (markers <-> value <-> param):
Hicks Henne <-> airfoil <-> 0.001 <-> ( 0, 0.05 )
Hicks Henne <-> airfoil <-> 0.001 <-> ( 0, 0.1 )
Hicks Henne <-> airfoil <-> 0.001 <-> ( 0, 0.15 )
Hicks Henne <-> airfoil <-> 0.001 <-> ( 0, 0.2 )
Hicks Henne <-> airfoil <-> 0.001 <-> ( 0, 0.25 )
Hicks Henne <-> airfoil <-> 0.001 <-> ( 0, 0.3 )
Hicks Henne <-> airfoil <-> 0.001 <-> ( 0, 0.35 )
Hicks Henne <-> airfoil <-> 0.001 <-> ( 0, 0.4 )
Hicks Henne <-> airfoil <-> 0.001 <-> ( 0, 0.45 )
Hicks Henne <-> airfoil <-> 0.001 <-> ( 0, 0.5 )
Hicks Henne <-> airfoil <-> 0.001 <-> ( 0, 0.55 )
Hicks Henne <-> airfoil <-> 0.001 <-> ( 0, 0.6 )
Hicks Henne <-> airfoil <-> 0.001 <-> ( 0, 0.65 )
Hicks Henne <-> airfoil <-> 0.001 <-> ( 0, 0.7 )
Hicks Henne <-> airfoil <-> 0.001 <-> ( 0, 0.75 )
Hicks Henne <-> airfoil <-> 0.001 <-> ( 0, 0.8 )
Hicks Henne <-> airfoil <-> 0.001 <-> ( 0, 0.85 )
Hicks Henne <-> airfoil <-> 0.001 <-> ( 0, 0.9 )
Hicks Henne <-> airfoil <-> 0.001 <-> ( 0, 0.95 )
Hicks Henne <-> airfoil <-> 0.001 <-> ( 1, 0.05 )
Hicks Henne <-> airfoil <-> 0.001 <-> ( 1, 0.1 )
Hicks Henne <-> airfoil <-> 0.001 <-> ( 1, 0.15 )
Hicks Henne <-> airfoil <-> 0.001 <-> ( 1, 0.2 )
Hicks Henne <-> airfoil <-> 0.001 <-> ( 1, 0.25 )
Hicks Henne <-> airfoil <-> 0.001 <-> ( 1, 0.3 )
Hicks Henne <-> airfoil <-> 0.001 <-> ( 1, 0.35 )
Hicks Henne <-> airfoil <-> 0.001 <-> ( 1, 0.4 )
Hicks Henne <-> airfoil <-> 0.001 <-> ( 1, 0.45 )
Hicks Henne <-> airfoil <-> 0.001 <-> ( 1, 0.5 )
Hicks Henne <-> airfoil <-> 0.001 <-> ( 1, 0.55 )
Hicks Henne <-> airfoil <-> 0.001 <-> ( 1, 0.6 )
Hicks Henne <-> airfoil <-> 0.001 <-> ( 1, 0.65 )
Hicks Henne <-> airfoil <-> 0.001 <-> ( 1, 0.7 )
Hicks Henne <-> airfoil <-> 0.001 <-> ( 1, 0.75 )
Hicks Henne <-> airfoil <-> 0.001 <-> ( 1, 0.8 )
Hicks Henne <-> airfoil <-> 0.001 <-> ( 1, 0.85 )
Hicks Henne <-> airfoil <-> 0.001 <-> ( 1, 0.9 )
Hicks Henne <-> airfoil <-> 0.001 <-> ( 1, 0.95 )

----------------------- Design problem definition -----------------------
CL objective function.

-------------------------- Output Information ---------------------------
Output gradient file name: of_grad.dat. 

------------------- Config File Boundary Information --------------------
Euler wall boundary marker(s): airfoil.
Far-field boundary marker(s): farfield.

---------------------- Read Grid File Information -----------------------
Two dimensional problem.
5233 points.
2 surface markers.
200 boundary elements in index 0 (Marker = airfoil).
50 boundary elements in index 1 (Marker = farfield).
10216 triangles.

----------------------- Preprocessing computations ----------------------
Setting local point connectivity.
Checking the numerical grid orientation.
Identify edges and vertices.
Computing centers of gravity.
Setting the bound control volume structure.
Reading surface sensitivities at each node from file.

---------- Start gradient evaluation using sensitivity information ----------
Evaluate functional gradient using Finite Differences.

Design variable (HICKS_HENNE) number 0.
LIFT gradient : -1.95993
-------------------------------------------------------------------------

Design variable (HICKS_HENNE) number 1.
LIFT gradient : -2.86657
-------------------------------------------------------------------------

Design variable (HICKS_HENNE) number 2.
LIFT gradient : -3.6223
-------------------------------------------------------------------------

Design variable (HICKS_HENNE) number 3.
LIFT gradient : -4.26012
-------------------------------------------------------------------------

Design variable (HICKS_HENNE) number 4.
LIFT gradient : -4.78473
-------------------------------------------------------------------------

Design variable (HICKS_HENNE) number 5.
LIFT gradient : -5.19879
-------------------------------------------------------------------------

Design variable (HICKS_HENNE) number 6.
LIFT gradient : -5.5106
-------------------------------------------------------------------------

Design variable (HICKS_HENNE) number 7.
LIFT gradient : -5.73738
-------------------------------------------------------------------------

Design variable (HICKS_HENNE) number 8.
LIFT gradient : -5.90639
-------------------------------------------------------------------------

Design variable (HICKS_HENNE) number 9.
LIFT gradient : -6.05445
-------------------------------------------------------------------------

Design variable (HICKS_HENNE) number 10.
LIFT gradient : -6.22554
-------------------------------------------------------------------------

Design variable (HICKS_HENNE) number 11.
LIFT gradient : -6.46673
-------------------------------------------------------------------------

Design variable (HICKS_HENNE) number 12.
LIFT gradient : -6.82259
-------------------------------------------------------------------------

Design variable (HICKS_HENNE) number 13.
LIFT gradient : -7.33029
-------------------------------------------------------------------------

Design variable (HICKS_HENNE) number 14.
LIFT gradient : -8.01876
-------------------------------------------------------------------------

Design variable (HICKS_HENNE) number 15.
LIFT gradient : -8.9133
-------------------------------------------------------------------------

Design variable (HICKS_HENNE) number 16.
LIFT gradient : -10.0547
-------------------------------------------------------------------------

Design variable (HICKS_HENNE) number 17.
LIFT gradient : -11.7077
-------------------------------------------------------------------------

Design variable (HICKS_HENNE) number 18.
LIFT gradient : -15.8302
-------------------------------------------------------------------------

Design variable (HICKS_HENNE) number 19.
LIFT gradient : 4.65434
-------------------------------------------------------------------------

Design variable (HICKS_HENNE) number 20.
LIFT gradient : 5.45032
-------------------------------------------------------------------------

Design variable (HICKS_HENNE) number 21.
LIFT gradient : 5.22605
-------------------------------------------------------------------------

Design variable (HICKS_HENNE) number 22.
LIFT gradient : 4.5252
-------------------------------------------------------------------------

Design variable (HICKS_HENNE) number 23.
LIFT gradient : 3.72797
-------------------------------------------------------------------------

Design variable (HICKS_HENNE) number 24.
LIFT gradient : 3.10481
-------------------------------------------------------------------------

Design variable (HICKS_HENNE) number 25.
LIFT gradient : 2.83288
-------------------------------------------------------------------------

Design variable (HICKS_HENNE) number 26.
LIFT gradient : 3.0173
-------------------------------------------------------------------------

Design variable (HICKS_HENNE) number 27.
LIFT gradient : 3.71365
-------------------------------------------------------------------------

Design variable (HICKS_HENNE) number 28.
LIFT gradient : 4.93608
-------------------------------------------------------------------------

Design variable (HICKS_HENNE) number 29.
LIFT gradient : 6.6326
-------------------------------------------------------------------------

Design variable (HICKS_HENNE) number 30.
LIFT gradient : 8.6176
-------------------------------------------------------------------------

Design variable (HICKS_HENNE) number 31.
LIFT gradient : 10.4845
-------------------------------------------------------------------------

Design variable (HICKS_HENNE) number 32.
LIFT gradient : 11.5971
-------------------------------------------------------------------------

Design variable (HICKS_HENNE) number 33.
LIFT gradient : 11.3714
-------------------------------------------------------------------------

Design variable (HICKS_HENNE) number 34.
LIFT gradient : 10.0037
-------------------------------------------------------------------------

Design variable (HICKS_HENNE) number 35.
LIFT gradient : 8.99481
-------------------------------------------------------------------------

Design variable (HICKS_HENNE) number 36.
LIFT gradient : 9.79953
-------------------------------------------------------------------------

Design variable (HICKS_HENNE) number 37.
LIFT gradient : 13.1759
-------------------------------------------------------------------------

Completed in 0.023103 seconds on 1 core.

------------------------- Exit Success (SU2_DOT) ------------------------

