
-------------------------------------------------------------------------
|    ___ _   _ ___                                                      |
|   / __| | | |_  )   Release 5.0.0  "Raven"                            |
|   \__ \ |_| |/ /                                                      |
|   |___/\___//___|   Suite (Computational Fluid Dynamics Code)         |
|                                                                       |
-------------------------------------------------------------------------
| SU2 Original Developers: Dr. Francisco D. Palacios.                   |
|                          Dr. Thomas D. Economon.                      |
-------------------------------------------------------------------------
| SU2 Developers:                                                       |
| - Prof. Juan J. Alonso's group at Stanford University.                |
| - Prof. Piero Colonna's group at Delft University of Technology.      |
| - Prof. Nicolas R. Gauger's group at Kaiserslautern U. of Technology. |
| - Prof. Alberto Guardone's group at Polytechnic University of Milan.  |
| - Prof. Rafael Palacios' group at Imperial College London.            |
| - Prof. Edwin van der Weide's group at the University of Twente.      |
| - Prof. Vincent Terrapon's group at the University of Liege.          |
-------------------------------------------------------------------------
| Copyright (C) 2012-2017 SU2, the open-source CFD code.                |
|                                                                       |
| SU2 is free software; you can redistribute it and/or                  |
| modify it under the terms of the GNU Lesser General Public            |
| License as published by the Free Software Foundation; either          |
| version 2.1 of the License, or (at your option) any later version.    |
|                                                                       |
| SU2 is distributed in the hope that it will be useful,                |
| but WITHOUT ANY WARRANTY; without even the implied warranty of        |
| MERCHANTABILITY or FITNESS FOR A PARTICULAR PURPOSE. See the GNU      |
| Lesser General Public License for more details.                       |
|                                                                       |
| You should have received a copy of the GNU Lesser General Public      |
| License along with SU2. If not, see <http://www.gnu.org/licenses/>.   |
-------------------------------------------------------------------------

------------------------ Physical Case Definition -----------------------
Compressible Euler equations.
Mach number: 0.8.
Angle of attack (AoA): 1.25 deg, and angle of sideslip (AoS): 0 deg.
No restart solution, use the values at infinity (freestream).
Non-Dimensional simulation (P=1.0, Rho=1.0, T=1.0 at the farfield).
The reference length/area (force coefficient) is 1.
The reference length (moment computation) is 1.
Reference origin (moment computation) is (0.25, 0, 0).
Surface(s) where the force coefficients are evaluated: airfoil.
Surface(s) where the objective function is evaluated: airfoil.
Surface(s) plotted in the output file: airfoil.
Surface(s) affected by the design variables: airfoil.
Input mesh file name: mesh_NACA0012_inv_deform.su2

---------------------- Space Numerical Integration ----------------------
Jameson-Schmidt-Turkel scheme for the flow inviscid terms.
JST viscous coefficients (1st, 2nd & 4th): 0.15, 0.5, 0.02.
The method includes a grid stretching correction (p = 0.3).
Second order integration.
Gradient Computation using weighted Least-Squares method.

---------------------- Time Numerical Integration -----------------------
Local time stepping (steady state simulation).
Euler implicit method for the flow equations.
W Multigrid Cycle, with 3 multigrid levels.
Damping factor for the residual restriction: 1.
Damping factor for the correction prolongation: 1.
No CFL adaptation.
Multigrid Level:                       0     1     2     3
Courant-Friedrichs-Lewy number:        5
MG PreSmooth coefficients:             1     2     3     3
MG PostSmooth coefficients:            0     0     0     0
MG CorrecSmooth coefficients:          0     0     0     0

------------------------- Convergence Criteria --------------------------
Maximum number of iterations: 2000.
Cauchy criteria for Drag using 100 elements and epsilon 1e-06.
Start convergence criteria at iteration 10.

-------------------------- Output Information ---------------------------
Writing a flow solution every 250 iterations.
Writing the convergence history every 1 iterations.
The output file format is Paraview ASCII (.vtk).
Convergence history file name: history_direct.
Forces breakdown file name: forces_breakdown.dat.
Surface flow coefficients file name: surface_flow.
Flow variables file name: flow.
Restart flow file name: restart_flow.dat.

------------------- Config File Boundary Information --------------------
Euler wall boundary marker(s): airfoil.
Far-field boundary marker(s): farfield.

---------------------- Read Grid File Information -----------------------
Two dimensional problem.
5233 points.
2 surface markers.
200 boundary elements in index 0 (Marker = airfoil).
50 boundary elements in index 1 (Marker = farfield).
10216 triangles.

------------------------- Geometry Preprocessing ------------------------
Setting point connectivity.
Renumbering points (Reverse Cuthill McKee Ordering).
Recomputing point connectivity.
Setting element connectivity.
Checking the numerical grid orientation.
Identifying edges and vertices.
Computing centers of gravity.
Setting the control volume structure.
Area of the computational grid: 1.25e+03.
Searching for the closest normal neighbors to the surfaces.
Compute the surface curvature.
Max K: 7.84e+03. Mean K: 35.2. Standard deviation K: 494.
Checking for periodicity.
Setting the multigrid structure.
MG level: 0 -> CVs: 5233. Agglomeration rate 1/1.00. CFL 5.
MG level: 1 -> CVs: 1533. Agglomeration rate 1/3.41. CFL 4.06.
MG level: 2 -> CVs: 443. Agglomeration rate 1/3.46. CFL 3.27.
MG level: 3 -> CVs: 125. Agglomeration rate 1/3.54. CFL 2.61.
Computing wall distances.
Wetted area = 2.03 m.
Area projection in the x-plane = 0.111 m, y-plane = 1 m.

------------------------- Driver information --------------------------
A Fluid driver has been instantiated.

------------------------ Iteration Preprocessing ------------------------
Zone 1: Euler/Navier-Stokes/RANS flow iteration.

------------------------- Solver Preprocessing --------------------------
Inviscid flow: Computing density based on free-stream
temperature and pressure using the ideal gas law.
Force coefficients computed using free-stream values.
-- Input conditions:
Fluid Model: STANDARD_AIR 
Specific gas constant: 287.058 N.m/kg.K.
Specific gas constant (non-dim): 1
Specific Heat Ratio: 1.4
Free-stream static pressure: 101325 Pa.
Free-stream total pressure: 154454 Pa.
Free-stream temperature: 288.15 K.
Free-stream density: 1.22498 kg/m^3.
Free-stream velocity: (272.173, 5.93883) m/s. Magnitude: 272.238 m/s (529.186 KTS).
Free-stream total energy per unit mass: 243846 m^2/s^2.
-- Reference values:
Reference specific gas constant: 287.058 N.m/kg.K.
Reference pressure: 101325 Pa.
Reference temperature: 288.15 K.
Reference density: 1.22498 kg/m^3.
Reference velocity: 287.603 m/s.
Reference energy per unit mass: 82715.8 m^2/s^2.
-- Resulting non-dimensional state:
Mach number (non-dim): 0.8
Specific gas constant (non-dim): 1
Free-stream temperature (non-dim): 1
Free-stream pressure (non-dim): 1
Free-stream density (non-dim): 1
Free-stream velocity (non-dim): (0.946348, 0.0206494). Magnitude: 0.946573
Free-stream total energy per unit mass (non-dim): 2.948

Initialize Jacobian structure (Euler). MG level: 0.
Initialize Jacobian structure (Euler). MG level: 1.
Initialize Jacobian structure (Euler). MG level: 2.
Initialize Jacobian structure (Euler). MG level: 3.

----------------- Integration and Numerics Preprocessing ----------------
Integration Preprocessing.
Numerics Preprocessing.

------------------------------ Begin Solver -----------------------------

---------------------- Local Time Stepping Summary ----------------------
MG level: 0 -> Min. DT: 0.00022289. Max. DT: 1.81418. CFL: 5.
MG level: 1 -> Min. DT: 0.000367961. Max. DT: 2.77337. CFL: 4.05935.
MG level: 2 -> Min. DT: 0.000503126. Max. DT: 3.70677. CFL: 3.27325.
MG level: 3 -> Min. DT: 0.000446921. Max. DT: 4.74488. CFL: 2.6081.
-------------------------------------------------------------------------

----------------------- Residual Evolution Summary ----------------------
log10[Maximum residual]: -2.56956.
Maximum residual point 97, located at (0.00056, -0.00424023).
-------------------------------------------------------------------------

 Iter    Time(s)     Res[Rho]     Res[RhoE]      CL(Total)      CD(Total)
    0   0.177337    -3.622629     -3.026252       0.086335       0.087243
    1   0.175407    -3.507227     -2.888757       0.124774       0.045710
    2   0.174924    -3.690627     -3.104901       0.156347       0.031174
    3   0.174533    -3.707150     -3.138515       0.182778       0.021891
    4   0.174329    -3.752898     -3.189286       0.208815       0.016280
    5   0.174129    -3.782969     -3.231917       0.232974       0.012521
    6   0.174002    -3.799042     -3.250309       0.253304       0.009824
    7   0.173947    -3.838043     -3.285253       0.269174       0.007869
    8   0.173939    -3.902138     -3.353294       0.281011       0.006467
    9   0.173871    -3.962597     -3.426630       0.289526       0.005503
   10   0.173831    -3.998735     -3.469514       0.295386       0.004884
   11   0.173774    -4.031148     -3.500267       0.299203       0.004511
   12   0.173755    -4.075520     -3.544199       0.301557       0.004296
   13   0.173795    -4.127059     -3.601041       0.302955       0.004179
   14   0.173819    -4.177128     -3.659569       0.303778       0.004123
   15   0.173786    -4.222771     -3.711216       0.304273       0.004104
   16   0.173776    -4.266202     -3.756646       0.304587       0.004106
   17   0.173760    -4.309859     -3.801340       0.304803       0.004117
   18   0.173749    -4.354694     -3.848930       0.304970       0.004131
   19   0.173772    -4.400870     -3.899465       0.305112       0.004147
   20   0.173795    -4.448052     -3.950881       0.305237       0.004159
   21   0.173788    -4.495371     -4.001051       0.305343       0.004167
   22   0.173765    -4.541563     -4.048664       0.305422       0.004174
   23   0.173746    -4.585878     -4.093628       0.305468       0.004183
   24   0.173754    -4.628408     -4.136645       0.305471       0.004196
   25   0.173769    -4.668999     -4.177829       0.305422       0.004214
   26   0.173758    -4.708220     -4.217894       0.305323       0.004236
   27   0.173740    -4.746244     -4.256868       0.305178       0.004263
   28   0.173731    -4.782838     -4.294308       0.304993       0.004294
   29   0.173726    -4.817518     -4.329624       0.304771       0.004329
   30   0.173719    -4.849998     -4.362602       0.304516       0.004364
   31   0.173728    -4.880194     -4.393247       0.304227       0.004400
   32   0.173722    -4.908540     -4.422142       0.303905       0.004434
   33   0.173718    -4.935552     -4.449912       0.303550       0.004465
   34   0.173709    -4.962096     -4.477497       0.303162       0.004494
   35   0.173702    -4.988752     -4.505351       0.302745       0.004519
   36   0.173697    -5.015824     -4.533553       0.302304       0.004541
   37   0.173706    -5.043091     -4.561620       0.301845       0.004560
   38   0.173691    -5.070568     -4.589711       0.301374       0.004576
   39   0.173685    -5.098187     -4.617879       0.300900       0.004589

---------------------- Local Time Stepping Summary ----------------------
MG level: 0 -> Min. DT: 0.000248288. Max. DT: 1.81416. CFL: 5.
MG level: 1 -> Min. DT: 0.000391485. Max. DT: 2.77213. CFL: 4.05935.
MG level: 2 -> Min. DT: 0.000520794. Max. DT: 3.70575. CFL: 3.27325.
MG level: 3 -> Min. DT: 0.000458947. Max. DT: 4.74757. CFL: 2.6081.
-------------------------------------------------------------------------

----------------------- Residual Evolution Summary ----------------------
log10[Maximum residual]: -4.09725.
Maximum residual point 637, located at (0.29604, 0.072137).
-------------------------------------------------------------------------

 Iter    Time(s)     Res[Rho]     Res[RhoE]      CL(Total)      CD(Total)
   40   0.173679    -5.125981     -4.646151       0.300430       0.004600
   41   0.173685    -5.154121     -4.674734       0.299970       0.004609
   42   0.173691    -5.182748     -4.703758       0.299527       0.004616
   43   0.173691    -5.211928     -4.733227       0.299104       0.004623
   44   0.173686    -5.241328     -4.762729       0.298706       0.004629
   45   0.173685    -5.270378     -4.791662       0.298336       0.004635
   46   0.173674    -5.298202     -4.819179       0.297996       0.004641
   47   0.173672    -5.323896     -4.844428       0.297687       0.004646
   48   0.173692    -5.346542     -4.866444       0.297409       0.004651
   49   0.173690    -5.365612     -4.884710       0.297161       0.004656
   50   0.173682    -5.381013     -4.899282       0.296941       0.004660
   51   0.173679    -5.392973     -4.910494       0.296746       0.004663
   52   0.173672    -5.402030     -4.918954       0.296574       0.004666
   53   0.173675    -5.408723     -4.925223       0.296422       0.004668
   54   0.173685    -5.413803     -4.930117       0.296290       0.004668
   55   0.173680    -5.417942     -4.934303       0.296172       0.004668
   56   0.173682    -5.421484     -4.938108       0.296068       0.004665
   57   0.173679    -5.424777     -4.941905       0.295976       0.004662
   58   0.173671    -5.428132     -4.945987       0.295892       0.004657
   59   0.173668    -5.432191     -4.951009       0.295817       0.004650
   60   0.173681    -5.436584     -4.956340       0.295748       0.004643
   61   0.173674    -5.441448     -4.962184       0.295684       0.004634
   62   0.173672    -5.446771     -4.968520       0.295624       0.004624
   63   0.173669    -5.452549     -4.975277       0.295568       0.004613
   64   0.173662    -5.458858     -4.982420       0.295517       0.004601
   65   0.173661    -5.465854     -4.990203       0.295469       0.004588
   66   0.173666    -5.473975     -4.999133       0.295425       0.004575
   67   0.173666    -5.483239     -5.009014       0.295386       0.004562
   68   0.173664    -5.493730     -5.020022       0.295351       0.004548
   69   0.173660    -5.505530     -5.032344       0.295321       0.004535
   70   0.173668    -5.518633     -5.045963       0.295295       0.004521
   71   0.173673    -5.533157     -5.060990       0.295274       0.004508
   72   0.173670    -5.549211     -5.077536       0.295257       0.004495
   73   0.173663    -5.566861     -5.095665       0.295245       0.004483
   74   0.173659    -5.586932     -5.116361       0.295238       0.004471
   75   0.173654    -5.609263     -5.139171       0.295235       0.004459
   76   0.173653    -5.633198     -5.163423       0.295235       0.004448
   77   0.173665    -5.658766     -5.189375       0.295240       0.004438
   78   0.173663    -5.686679     -5.217695       0.295247       0.004428
   79   0.173662    -5.715694     -5.246695       0.295258       0.004420

---------------------- Local Time Stepping Summary ----------------------
MG level: 0 -> Min. DT: 0.000247333. Max. DT: 1.81416. CFL: 5.
MG level: 1 -> Min. DT: 0.000390137. Max. DT: 2.77215. CFL: 4.05935.
MG level: 2 -> Min. DT: 0.000519557. Max. DT: 3.70576. CFL: 3.27325.
MG level: 3 -> Min. DT: 0.000457956. Max. DT: 4.74754. CFL: 2.6081.
-------------------------------------------------------------------------

----------------------- Residual Evolution Summary ----------------------
log10[Maximum residual]: -4.46602.
Maximum residual point 637, located at (0.29604, 0.072137).
-------------------------------------------------------------------------

 Iter    Time(s)     Res[Rho]     Res[RhoE]      CL(Total)      CD(Total)
   80   0.173658    -5.745738     -5.276661       0.295270       0.004411
   81   0.173657    -5.776683     -5.307563       0.295284       0.004404
   82   0.173657    -5.808445     -5.339296       0.295299       0.004397
   83   0.173663    -5.840878     -5.371645       0.295315       0.004391
   84   0.173658    -5.873646     -5.404180       0.295330       0.004385
   85   0.173658    -5.906111     -5.436036       0.295345       0.004381
   86   0.173656    -5.938125     -5.467234       0.295359       0.004376
   87   0.173654    -5.969194     -5.497421       0.295372       0.004373
   88   0.173656    -5.998648     -5.525800       0.295383       0.004370
   89   0.173661    -6.025821     -5.551582       0.295391       0.004368
   90   0.173662    -6.049946     -5.574002       0.295398       0.004366
   91   0.173658    -6.070271     -5.592430       0.295401       0.004365
   92   0.173655    -6.086263     -5.606504       0.295402       0.004365
   93   0.173653    -6.097751     -5.616236       0.295399       0.004364
   94   0.173663    -6.104947     -5.621987       0.295393       0.004365
   95   0.173659    -6.108397     -5.624393       0.295384       0.004366
   96   0.173657    -6.108920     -5.624305       0.295371       0.004367
   97   0.173656    -6.107419     -5.622598       0.295355       0.004368
   98   0.173657    -6.104789     -5.620109       0.295336       0.004370
   99   0.173661    -6.101830     -5.617563       0.295313       0.004373
  100   0.173665    -6.099205     -5.615550       0.295288       0.004375
  101   0.173661    -6.097410     -5.614501       0.295261       0.004378
  102   0.173659    -6.096809     -5.614731       0.295231       0.004381
  103   0.173655    -6.097672     -5.616474       0.295199       0.004385
  104   0.173652    -6.100168     -5.619870       0.295166       0.004388
  105   0.173649    -6.104397     -5.625003       0.295131       0.004392
  106   0.173655    -6.110418     -5.631921       0.295096       0.004396
  107   0.173653    -6.118285     -5.640673       0.295060       0.004399
  108   0.173649    -6.127909     -5.651157       0.295024       0.004403
  109   0.173647    -6.139242     -5.663341       0.294989       0.004407
  110   0.173647    -6.152409     -5.677355       0.294953       0.004411
  111   0.173649    -6.167417     -5.693172       0.294919       0.004415
  112   0.173652    -6.184252     -5.710778       0.294885       0.004419
  113   0.173652    -6.202867     -5.730116       0.294853       0.004423
  114   0.173648    -6.223198     -5.751105       0.294821       0.004427
  115   0.173645    -6.245432     -5.774022       0.294791       0.004431
  116   0.173642    -6.269677     -5.798989       0.294763       0.004434
  117   0.173645    -6.295529     -5.825299       0.294735       0.004437
  118   0.173641    -6.322466     -5.852282       0.294710       0.004441
  119   0.173638    -6.350211     -5.879793       0.294686       0.004443

---------------------- Local Time Stepping Summary ----------------------
MG level: 0 -> Min. DT: 0.000247293. Max. DT: 1.81416. CFL: 5.
MG level: 1 -> Min. DT: 0.000390053. Max. DT: 2.77215. CFL: 4.05935.
MG level: 2 -> Min. DT: 0.000519455. Max. DT: 3.70577. CFL: 3.27325.
MG level: 3 -> Min. DT: 0.000457871. Max. DT: 4.74753. CFL: 2.6081.
-------------------------------------------------------------------------

----------------------- Residual Evolution Summary ----------------------
log10[Maximum residual]: -5.18747.
Maximum residual point 602, located at (0.741565, 0.0654596).
-------------------------------------------------------------------------

 Iter    Time(s)     Res[Rho]     Res[RhoE]      CL(Total)      CD(Total)
  120   0.173637    -6.378263     -5.907358       0.294663       0.004446
  121   0.173635    -6.406066     -5.934382       0.294643       0.004449
  122   0.173636    -6.432982     -5.960172       0.294624       0.004451
  123   0.173641    -6.458243     -5.983942       0.294606       0.004453
  124   0.173639    -6.480986     -6.004874       0.294590       0.004454
  125   0.173638    -6.500355     -6.022217       0.294576       0.004456
  126   0.173634    -6.515647     -6.035431       0.294563       0.004457
  127   0.173632    -6.526454     -6.044296       0.294552       0.004458
  128   0.173633    -6.532759     -6.048967       0.294542       0.004458
  129   0.173641    -6.534939     -6.049938       0.294534       0.004459
  130   0.173641    -6.533683     -6.047941       0.294527       0.004459
  131   0.173638    -6.529854     -6.043819       0.294521       0.004459
  132   0.173636    -6.524347     -6.038403       0.294517       0.004458
  133   0.173630    -6.517993     -6.032441       0.294513       0.004458
  134   0.173629    -6.511496     -6.026556       0.294511       0.004457
  135   0.173634    -6.505430     -6.021249       0.294510       0.004456
  136   0.173632    -6.500231     -6.016903       0.294510       0.004455
  137   0.173630    -6.496222     -6.013798       0.294510       0.004454
  138   0.173627    -6.493633     -6.012138       0.294512       0.004453
  139   0.173627    -6.492625     -6.012061       0.294514       0.004452
  140   0.173630    -6.493309     -6.013667       0.294517       0.004451
  141   0.173631    -6.495761     -6.017027       0.294521       0.004449
  142   0.173629    -6.500035     -6.022189       0.294525       0.004448
  143   0.173628    -6.506398     -6.029441       0.294530       0.004446
  144   0.173628    -6.514643     -6.038490       0.294535       0.004445
  145   0.173628    -6.524733     -6.049371       0.294540       0.004443
  146   0.173632    -6.536640     -6.062053       0.294546       0.004441
  147   0.173631    -6.550370     -6.076535       0.294552       0.004440
  148   0.173630    -6.565936     -6.092831       0.294558       0.004438
  149   0.173632    -6.583343     -6.110943       0.294564       0.004437
  150   0.173630    -6.602590     -6.130870       0.294570       0.004435
  151   0.173628    -6.623671     -6.152597       0.294576       0.004434
  152   0.173636    -6.646565     -6.176092       0.294582       0.004433
  153   0.173635    -6.671223     -6.201291       0.294588       0.004432
  154   0.173634    -6.697577     -6.228113       0.294593       0.004430
  155   0.173633    -6.725515     -6.256417       0.294598       0.004429
  156   0.173635    -6.754870     -6.286003       0.294603       0.004428
  157   0.173634    -6.785394     -6.316574       0.294608       0.004427
  158   0.173638    -6.816729     -6.347720       0.294613       0.004426
  159   0.173636    -6.848385     -6.378892       0.294617       0.004426

---------------------- Local Time Stepping Summary ----------------------
MG level: 0 -> Min. DT: 0.000247266. Max. DT: 1.81416. CFL: 5.
MG level: 1 -> Min. DT: 0.000390025. Max. DT: 2.77215. CFL: 4.05935.
MG level: 2 -> Min. DT: 0.000519451. Max. DT: 3.70577. CFL: 3.27325.
MG level: 3 -> Min. DT: 0.000457867. Max. DT: 4.74753. CFL: 2.6081.
-------------------------------------------------------------------------

----------------------- Residual Evolution Summary ----------------------
log10[Maximum residual]: -5.69557.
Maximum residual point 602, located at (0.741565, 0.0654596).
-------------------------------------------------------------------------

 Iter    Time(s)     Res[Rho]     Res[RhoE]      CL(Total)      CD(Total)
  160   0.173635    -6.879713     -6.409378       0.294620       0.004425
  161   0.173634    -6.909897     -6.438320       0.294623       0.004424
  162   0.173635    -6.937977     -6.464750       0.294626       0.004424
  163   0.173636    -6.962927     -6.487691       0.294628       0.004423
  164   0.173637    -6.983786     -6.506311       0.294630       0.004423
  165   0.173635    -6.999846     -6.520093       0.294632       0.004423
  166   0.173633    -7.010806     -6.528950       0.294633       0.004423
  167   0.173632    -7.016850     -6.533253       0.294634       0.004423
  168   0.173634    -7.018596     -6.533735       0.294634       0.004423
  169   0.173637    -7.016959     -6.531342       0.294634       0.004423
  170   0.173634    -7.012967     -6.527062       0.294633       0.004423
  171   0.173635    -7.007612     -6.521810       0.294632       0.004423
  172   0.173635    -7.001757     -6.516358       0.294631       0.004423
  173   0.173634    -6.996099     -6.511320       0.294629       0.004423
  174   0.173631    -6.991170     -6.507158       0.294627       0.004424
  175   0.173635    -6.987364     -6.504214       0.294625       0.004424
  176   0.173633    -6.984952     -6.502718       0.294623       0.004425
  177   0.173631    -6.984129     -6.502837       0.294620       0.004425
  178   0.173629    -6.985023     -6.504682       0.294617       0.004426
  179   0.173628    -6.987724     -6.508328       0.294614       0.004426
  180   0.173626    -6.992283     -6.513821       0.294611       0.004427
  181   0.173631    -6.998736     -6.521192       0.294608       0.004427
  182   0.173630    -7.007105     -6.530458       0.294605       0.004428
  183   0.173629    -7.017401     -6.541628       0.294601       0.004428
  184   0.173628    -7.029630     -6.554705       0.294598       0.004429
  185   0.173630    -7.043791     -6.569685       0.294594       0.004429
  186   0.173630    -7.059880     -6.586560       0.294591       0.004430
  187   0.173631    -7.077884     -6.605312       0.294588       0.004430
  188   0.173629    -7.097782     -6.625911       0.294584       0.004431
  189   0.173628    -7.119538     -6.648308       0.294581       0.004431
  190   0.173626    -7.143092     -6.672430       0.294578       0.004432
  191   0.173625    -7.168356     -6.698163       0.294575       0.004432
  192   0.173630    -7.195193     -6.725343       0.294572       0.004433
  193   0.173630    -7.223403     -6.753730       0.294570       0.004433
  194   0.173628    -7.252696     -6.782988       0.294567       0.004433
  195   0.173627    -7.282667     -6.812657       0.294565       0.004434
  196   0.173624    -7.312769     -6.842131       0.294563       0.004434
  197   0.173624    -7.342293     -6.870649       0.294561       0.004434
  198   0.173627    -7.370368     -6.897314       0.294559       0.004434
  199   0.173626    -7.396006     -6.921156       0.294557       0.004435

---------------------- Local Time Stepping Summary ----------------------
MG level: 0 -> Min. DT: 0.00024727. Max. DT: 1.81416. CFL: 5.
MG level: 1 -> Min. DT: 0.000390027. Max. DT: 2.77215. CFL: 4.05935.
MG level: 2 -> Min. DT: 0.000519448. Max. DT: 3.70577. CFL: 3.27325.
MG level: 3 -> Min. DT: 0.000457868. Max. DT: 4.74753. CFL: 2.6081.
-------------------------------------------------------------------------

----------------------- Residual Evolution Summary ----------------------
log10[Maximum residual]: -6.27474.
Maximum residual point 602, located at (0.741565, 0.0654596).
-------------------------------------------------------------------------

 Iter    Time(s)     Res[Rho]     Res[RhoE]      CL(Total)      CD(Total)
  200   0.173624    -7.418199     -6.941256       0.294555       0.004435
  201   0.173622    -7.436074     -6.956895       0.294554       0.004435
  202   0.173621    -7.449067     -6.967713       0.294553       0.004435
  203   0.173621    -7.457054     -6.973795       0.294552       0.004435
  204   0.173624    -7.460386     -6.975645       0.294551       0.004435
  205   0.173621    -7.459801     -6.974076       0.294551       0.004435
  206   0.173620    -7.456257     -6.970041       0.294550       0.004435
  207   0.173618    -7.450769     -6.964494       0.294550       0.004435
  208   0.173617    -7.444274     -6.958284       0.294550       0.004435
  209   0.173616    -7.437562     -6.952114       0.294550       0.004435
  210   0.173618    -7.431258     -6.946530       0.294550       0.004435
  211   0.173618    -7.425838     -6.941945       0.294550       0.004435
  212   0.173618    -7.421645     -6.938656       0.294550       0.004435
  213   0.173616    -7.418920     -6.936870       0.294551       0.004434
  214   0.173618    -7.417828     -6.936732       0.294552       0.004434
  215   0.173620    -7.418479     -6.938335       0.294552       0.004434
  216   0.173619    -7.420944     -6.941741       0.294553       0.004434
  217   0.173617    -7.425268     -6.946991       0.294554       0.004434
  218   0.173615    -7.431479     -6.954108       0.294555       0.004434
  219   0.173614    -7.439593     -6.963108       0.294555       0.004433
  220   0.173614    -7.449619     -6.973997       0.294556       0.004433
  221   0.173619    -7.461562     -6.986780       0.294557       0.004433
  222   0.173619    -7.475421     -7.001455       0.294558       0.004433
  223   0.173617    -7.491196     -7.018019       0.294559       0.004433
  224   0.173615    -7.508878     -7.036461       0.294560       0.004432
  225   0.173617    -7.528456     -7.056761       0.294561       0.004432
  226   0.173616    -7.549905     -7.078888       0.294562       0.004432
  227   0.173620    -7.573186     -7.102789       0.294563       0.004432
  228   0.173619    -7.598235     -7.128382       0.294564       0.004432
  229   0.173619    -7.624953     -7.155544       0.294565       0.004432
  230   0.173617    -7.653187     -7.184090       0.294566       0.004432
  231   0.173616    -7.682715     -7.213757       0.294567       0.004431
  232   0.173617    -7.713218     -7.244171       0.294567       0.004431
  233   0.173617    -7.744248     -7.274828       0.294568       0.004431
  234   0.173616    -7.775209     -7.305068       0.294569       0.004431
  235   0.173616    -7.805333     -7.334072       0.294569       0.004431
  236   0.173615    -7.833697     -7.360897       0.294570       0.004431
  237   0.173615    -7.859279     -7.384554       0.294570       0.004431
  238   0.173617    -7.881077     -7.404149       0.294570       0.004431
  239   0.173617    -7.898280     -7.419047       0.294571       0.004431

---------------------- Local Time Stepping Summary ----------------------
MG level: 0 -> Min. DT: 0.000247268. Max. DT: 1.81416. CFL: 5.
MG level: 1 -> Min. DT: 0.000390026. Max. DT: 2.77215. CFL: 4.05935.
MG level: 2 -> Min. DT: 0.000519449. Max. DT: 3.70577. CFL: 3.27325.
MG level: 3 -> Min. DT: 0.000457868. Max. DT: 4.74753. CFL: 2.6081.
-------------------------------------------------------------------------

----------------------- Residual Evolution Summary ----------------------
log10[Maximum residual]: -6.78003.
Maximum residual point 2215, located at (0.437723, 0.379143).
-------------------------------------------------------------------------

 Iter    Time(s)     Res[Rho]     Res[RhoE]      CL(Total)      CD(Total)
  240   0.173616    -7.910441     -7.429019       0.294571       0.004431
  241   0.173616    -7.917588     -7.434297       0.294571       0.004431
  242   0.173615    -7.920214     -7.435514       0.294571       0.004431
  243   0.173617    -7.919162     -7.433567       0.294572       0.004431
  244   0.173621    -7.915444     -7.429443       0.294572       0.004431
  245   0.173621    -7.910075     -7.424088       0.294572       0.004431
  246   0.173620    -7.903965     -7.418319       0.294572       0.004431
  247   0.173620    -7.897862     -7.412796       0.294571       0.004431
  248   0.173619    -7.892347     -7.408026       0.294571       0.004431
  249   0.173619    -7.887852     -7.404381       0.294571       0.004431
  250   0.173622    -7.884685     -7.402126       0.294571       0.004431

-------------------------- File Output Summary --------------------------
Writing comma-separated values (CSV) surface files.
Merging connectivities in the Master node.
Merging coordinates in the Master node.
Merging solution in the Master node.
Writing SU2 native restart file.
Writing Paraview ASCII volume solution file.
Writing Paraview ASCII surface solution file.
Writing the forces breakdown file.
-------------------------------------------------------------------------

  251   0.173869    -7.883061     -7.401445       0.294571       0.004431
  252   0.173868    -7.883126     -7.402464       0.294570       0.004431
  253   0.173866    -7.884976     -7.405265       0.294570       0.004431
  254   0.173866    -7.888673     -7.409901       0.294570       0.004431
  255   0.173867    -7.894255     -7.416406       0.294569       0.004431
  256   0.173866    -7.901747     -7.424799       0.294569       0.004431
  257   0.173863    -7.911160     -7.435092       0.294569       0.004431
  258   0.173862    -7.922503     -7.447291       0.294568       0.004432
  259   0.173860    -7.935776     -7.461394       0.294568       0.004432
  260   0.173858    -7.950979     -7.477398       0.294567       0.004432
  261   0.173860    -7.968103     -7.495291       0.294567       0.004432
  262   0.173860    -7.987135     -7.515053       0.294567       0.004432
  263   0.173859    -8.008051     -7.536651       0.294566       0.004432
  264   0.173857    -8.030809     -7.560030       0.294566       0.004432
  265   0.173855    -8.055343     -7.585108       0.294566       0.004432
  266   0.173855    -8.081553     -7.611758       0.294565       0.004432
  267   0.173855    -8.109283     -7.639793       0.294565       0.004432
  268   0.173854    -8.138307     -7.668945       0.294565       0.004432
  269   0.173852    -8.168301     -7.698838       0.294564       0.004432
  270   0.173851    -8.198815     -7.728964       0.294564       0.004432
  271   0.173851    -8.229245     -7.758657       0.294564       0.004432
  272   0.173851    -8.258819     -7.787097       0.294564       0.004432
  273   0.173851    -8.286609     -7.813339       0.294563       0.004432
  274   0.173850    -8.311592     -7.836397       0.294563       0.004432
  275   0.173848    -8.332771     -7.855382       0.294563       0.004432
  276   0.173846    -8.349344     -7.869674       0.294563       0.004432
  277   0.173844    -8.360877     -7.879054       0.294563       0.004432
  278   0.173848    -8.367414     -7.883765       0.294563       0.004432
  279   0.173846    -8.369461     -7.884450       0.294563       0.004432

---------------------- Local Time Stepping Summary ----------------------
MG level: 0 -> Min. DT: 0.000247268. Max. DT: 1.81416. CFL: 5.
MG level: 1 -> Min. DT: 0.000390026. Max. DT: 2.77215. CFL: 4.05935.
MG level: 2 -> Min. DT: 0.000519448. Max. DT: 3.70577. CFL: 3.27325.
MG level: 3 -> Min. DT: 0.000457868. Max. DT: 4.74753. CFL: 2.6081.
-------------------------------------------------------------------------

----------------------- Residual Evolution Summary ----------------------
log10[Maximum residual]: -7.24109.
Maximum residual point 1994, located at (0.38718, 0.327588).
-------------------------------------------------------------------------

 Iter    Time(s)     Res[Rho]     Res[RhoE]      CL(Total)      CD(Total)
  280   0.173844    -8.367867     -7.882006       0.294563       0.004432
  281   0.173843    -8.363644     -7.877420       0.294563       0.004432
  282   0.173841    -8.357807     -7.871630       0.294562       0.004432
  283   0.173841    -8.351258     -7.865449       0.294562       0.004432
  284   0.173842    -8.344739     -7.859532       0.294563       0.004432
  285   0.173841    -8.338826     -7.854379       0.294563       0.004432
  286   0.173841    -8.333945     -7.850359       0.294563       0.004432
  287   0.173839    -8.330400     -7.847734       0.294563       0.004432
  288   0.173838    -8.328402     -7.846685       0.294563       0.004432
  289   0.173837    -8.328096     -7.847336       0.294563       0.004432
  290   0.173840    -8.329574     -7.849767       0.294563       0.004432
  291   0.173840    -8.332897     -7.854031       0.294563       0.004432
  292   0.173838    -8.338101     -7.860159       0.294563       0.004432
  293   0.173837    -8.345210     -7.868171       0.294563       0.004432
  294   0.173835    -8.354234     -7.878076       0.294563       0.004432
  295   0.173834    -8.365182     -7.889881       0.294564       0.004432
  296   0.173835    -8.378053     -7.903586       0.294564       0.004432
  297   0.173835    -8.392847     -7.919186       0.294564       0.004432
  298   0.173835    -8.409558     -7.936674       0.294564       0.004432
  299   0.173833    -8.428175     -7.956032       0.294564       0.004432
  300   0.173833    -8.448678     -7.977232       0.294564       0.004432
  301   0.173836    -8.471032     -8.000231       0.294564       0.004432
  302   0.173835    -8.495184     -8.024957       0.294564       0.004432
  303   0.173833    -8.521047     -8.051303       0.294564       0.004432
  304   0.173832    -8.548489     -8.079108       0.294565       0.004432
  305   0.173830    -8.577317     -8.108138       0.294565       0.004432
  306   0.173829    -8.607248     -8.138065       0.294565       0.004432
  307   0.173831    -8.637884     -8.168434       0.294565       0.004432
  308   0.173829    -8.668685     -8.198643       0.294565       0.004432
  309   0.173829    -8.698948     -8.227932       0.294565       0.004432
  310   0.173827    -8.727802     -8.255399       0.294565       0.004432
  311   0.173825    -8.754253     -8.280060       0.294565       0.004432
  312   0.173826    -8.777276     -8.300973       0.294565       0.004432
  313   0.173828    -8.795973     -8.317390       0.294565       0.004432
  314   0.173827    -8.809748     -8.328925       0.294565       0.004432
  315   0.173825    -8.818453     -8.335641       0.294565       0.004432
  316   0.173825    -8.822419     -8.338038       0.294565       0.004432
  317   0.173836    -8.822380     -8.336933       0.294565       0.004432
  318   0.173836    -8.819305     -8.333296       0.294565       0.004432
  319   0.173836    -8.814222     -8.328096       0.294565       0.004432

---------------------- Local Time Stepping Summary ----------------------
MG level: 0 -> Min. DT: 0.000247268. Max. DT: 1.81416. CFL: 5.
MG level: 1 -> Min. DT: 0.000390026. Max. DT: 2.77215. CFL: 4.05935.
MG level: 2 -> Min. DT: 0.000519449. Max. DT: 3.70577. CFL: 3.27325.
MG level: 3 -> Min. DT: 0.000457868. Max. DT: 4.74753. CFL: 2.6081.
-------------------------------------------------------------------------

----------------------- Residual Evolution Summary ----------------------
log10[Maximum residual]: -7.65257.
Maximum residual point 1714, located at (0.303824, 0.237253).
-------------------------------------------------------------------------

 Iter    Time(s)     Res[Rho]     Res[RhoE]      CL(Total)      CD(Total)
  320   0.173835    -8.808086     -8.322203       0.294565       0.004432
  321   0.173835    -8.801706     -8.316334       0.294565       0.004432
  322   0.173833    -8.795722     -8.311048       0.294565       0.004432
  323   0.173831    -8.790616     -8.306763       0.294565       0.004432
  324   0.173834    -8.786737     -8.303781       0.294565       0.004432
  325   0.173834    -8.784332     -8.302313       0.294565       0.004432
  326   0.173832    -8.783569     -8.302503       0.294565       0.004432
  327   0.173831    -8.784559     -8.304447       0.294565       0.004432
  328   0.173831    -8.787376     -8.308209       0.294565       0.004432
  329   0.173831    -8.792065     -8.313827       0.294565       0.004432
  330   0.173831    -8.798654     -8.321326       0.294565       0.004432
  331   0.173830    -8.807159     -8.330721       0.294565       0.004432
  332   0.173828    -8.817590     -8.342017       0.294565       0.004432
  333   0.173827    -8.829950     -8.355218       0.294565       0.004432
  334   0.173825    -8.844238     -8.370321       0.294565       0.004432
  335   0.173825    -8.860451     -8.387318       0.294565       0.004432
  336   0.173827    -8.878577     -8.406194       0.294565       0.004432
  337   0.173827    -8.898600     -8.426924       0.294565       0.004432
  338   0.173825    -8.920487     -8.449467       0.294565       0.004432
  339   0.173824    -8.944187     -8.473756       0.294565       0.004432
  340   0.173824    -8.969621     -8.499689       0.294565       0.004432
  341   0.173824    -8.996665     -8.527118       0.294565       0.004432
  342   0.173825    -9.025136     -8.555819       0.294565       0.004432
  343   0.173824    -9.054765     -8.585482       0.294565       0.004432
  344   0.173823    -9.085177     -8.615672       0.294565       0.004432
  345   0.173821    -9.115855     -8.645812       0.294565       0.004432
  346   0.173820    -9.146121     -8.675168       0.294564       0.004432
  347   0.173821    -9.175128     -8.702855       0.294564       0.004432
  348   0.173819    -9.201897     -8.727896       0.294564       0.004432
  349   0.173818    -9.225397     -8.749330       0.294564       0.004432
  350   0.173816    -9.244697     -8.766368       0.294564       0.004432
  351   0.173815    -9.259142     -8.778557       0.294564       0.004432
  352   0.173815    -9.268506     -8.785888       0.294564       0.004432
  353   0.173818    -9.273049     -8.788794       0.294564       0.004432
  354   0.173816    -9.273449     -8.788055       0.294564       0.004432
  355   0.173815    -9.270652     -8.784626       0.294564       0.004432
  356   0.173814    -9.265688     -8.779486       0.294564       0.004432
  357   0.173814    -9.259529     -8.773525       0.294564       0.004432
  358   0.173813    -9.253010     -8.767485       0.294564       0.004432
  359   0.173815    -9.246797     -8.761949       0.294564       0.004432

---------------------- Local Time Stepping Summary ----------------------
MG level: 0 -> Min. DT: 0.000247268. Max. DT: 1.81416. CFL: 5.
MG level: 1 -> Min. DT: 0.000390026. Max. DT: 2.77215. CFL: 4.05935.
MG level: 2 -> Min. DT: 0.000519448. Max. DT: 3.70577. CFL: 3.27325.
MG level: 3 -> Min. DT: 0.000457868. Max. DT: 4.74753. CFL: 2.6081.
-------------------------------------------------------------------------

----------------------- Residual Evolution Summary ----------------------
log10[Maximum residual]: -8.06909.
Maximum residual point 1714, located at (0.303824, 0.237253).
-------------------------------------------------------------------------

 Iter    Time(s)     Res[Rho]     Res[RhoE]      CL(Total)      CD(Total)
  360   0.173814    -9.241395     -8.757357       0.294564       0.004432
  361   0.173813    -9.237173     -8.754024       0.294564       0.004432
  362   0.173812    -9.234391     -8.752176       0.294564       0.004432
  363   0.173811    -9.233226     -8.751965       0.294564       0.004432
  364   0.173810    -9.233799     -8.753493       0.294564       0.004432
  365   0.173812    -9.236186     -8.756828       0.294564       0.004432
  366   0.173812    -9.240437     -8.762012       0.294564       0.004432
  367   0.173811    -9.246581     -8.769070       0.294564       0.004432
  368   0.173810    -9.254636     -8.778019       0.294564       0.004432

-------------------------- File Output Summary --------------------------
Writing comma-separated values (CSV) surface files.
Merging connectivities in the Master node.
Merging coordinates in the Master node.
Merging solution in the Master node.
Writing SU2 native restart file.
Writing Paraview ASCII volume solution file.
Writing Paraview ASCII surface solution file.
Writing the forces breakdown file.
-------------------------------------------------------------------------

History file, closed.

------------------------- Solver Postprocessing -------------------------
Deleted CNumerics container.
Deleted CIntegration container.
Deleted CSolver container.
Deleted CIteration container.
Deleted CInterpolator container.
Deleted CTransfer container.
Deleted CGeometry container.
Deleted CFreeFormDefBox class.
Deleted CSurfaceMovement class.
Deleted CVolumetricMovement class.
Deleted CConfig container.
Deleted COutput class.
-------------------------------------------------------------------------

Completed in 64.216626 seconds on 1 core.

------------------------- Exit Success (SU2_CFD) ------------------------

