
-------------------------------------------------------------------------
|    ___ _   _ ___                                                      |
|   / __| | | |_  )   Release 5.0.0  "Raven"                            |
|   \__ \ |_| |/ /                                                      |
|   |___/\___//___|   Suite (Computational Fluid Dynamics Code)         |
|                                                                       |
-------------------------------------------------------------------------
| SU2 Original Developers: Dr. Francisco D. Palacios.                   |
|                          Dr. Thomas D. Economon.                      |
-------------------------------------------------------------------------
| SU2 Developers:                                                       |
| - Prof. Juan J. Alonso's group at Stanford University.                |
| - Prof. Piero Colonna's group at Delft University of Technology.      |
| - Prof. Nicolas R. Gauger's group at Kaiserslautern U. of Technology. |
| - Prof. Alberto Guardone's group at Polytechnic University of Milan.  |
| - Prof. Rafael Palacios' group at Imperial College London.            |
| - Prof. Edwin van der Weide's group at the University of Twente.      |
| - Prof. Vincent Terrapon's group at the University of Liege.          |
-------------------------------------------------------------------------
| Copyright (C) 2012-2017 SU2, the open-source CFD code.                |
|                                                                       |
| SU2 is free software; you can redistribute it and/or                  |
| modify it under the terms of the GNU Lesser General Public            |
| License as published by the Free Software Foundation; either          |
| version 2.1 of the License, or (at your option) any later version.    |
|                                                                       |
| SU2 is distributed in the hope that it will be useful,                |
| but WITHOUT ANY WARRANTY; without even the implied warranty of        |
| MERCHANTABILITY or FITNESS FOR A PARTICULAR PURPOSE. See the GNU      |
| Lesser General Public License for more details.                       |
|                                                                       |
| You should have received a copy of the GNU Lesser General Public      |
| License along with SU2. If not, see <http://www.gnu.org/licenses/>.   |
-------------------------------------------------------------------------

------------------------ Physical Case Definition -----------------------
Compressible Euler equations.
Mach number: 0.8.
Angle of attack (AoA): 1.25 deg, and angle of sideslip (AoS): 0 deg.
No restart solution, use the values at infinity (freestream).
Non-Dimensional simulation (P=1.0, Rho=1.0, T=1.0 at the farfield).
The reference length/area (force coefficient) is 1.
The reference length (moment computation) is 1.
Reference origin (moment computation) is (0.25, 0, 0).
Surface(s) where the force coefficients are evaluated: airfoil.
Surface(s) where the objective function is evaluated: airfoil.
Surface(s) plotted in the output file: airfoil.
Surface(s) affected by the design variables: airfoil.
Input mesh file name: mesh_NACA0012_inv_deform.su2

---------------------- Space Numerical Integration ----------------------
Jameson-Schmidt-Turkel scheme for the flow inviscid terms.
JST viscous coefficients (1st, 2nd & 4th): 0.15, 0.5, 0.02.
The method includes a grid stretching correction (p = 0.3).
Second order integration.
Gradient Computation using weighted Least-Squares method.

---------------------- Time Numerical Integration -----------------------
Local time stepping (steady state simulation).
Euler implicit method for the flow equations.
W Multigrid Cycle, with 3 multigrid levels.
Damping factor for the residual restriction: 1.
Damping factor for the correction prolongation: 1.
No CFL adaptation.
Multigrid Level:                       0     1     2     3
Courant-Friedrichs-Lewy number:        5
MG PreSmooth coefficients:             1     2     3     3
MG PostSmooth coefficients:            0     0     0     0
MG CorrecSmooth coefficients:          0     0     0     0

------------------------- Convergence Criteria --------------------------
Maximum number of iterations: 2000.
Cauchy criteria for Drag using 100 elements and epsilon 1e-06.
Start convergence criteria at iteration 10.

-------------------------- Output Information ---------------------------
Writing a flow solution every 250 iterations.
Writing the convergence history every 1 iterations.
The output file format is Paraview ASCII (.vtk).
Convergence history file name: history_direct.
Forces breakdown file name: forces_breakdown.dat.
Surface flow coefficients file name: surface_flow.
Flow variables file name: flow.
Restart flow file name: restart_flow.dat.

------------------- Config File Boundary Information --------------------
Euler wall boundary marker(s): airfoil.
Far-field boundary marker(s): farfield.

---------------------- Read Grid File Information -----------------------
Two dimensional problem.
5233 points.
2 surface markers.
200 boundary elements in index 0 (Marker = airfoil).
50 boundary elements in index 1 (Marker = farfield).
10216 triangles.

------------------------- Geometry Preprocessing ------------------------
Setting point connectivity.
Renumbering points (Reverse Cuthill McKee Ordering).
Recomputing point connectivity.
Setting element connectivity.
Checking the numerical grid orientation.
Identifying edges and vertices.
Computing centers of gravity.
Setting the control volume structure.
Area of the computational grid: 1.25e+03.
Searching for the closest normal neighbors to the surfaces.
Compute the surface curvature.
Max K: 7.84e+03. Mean K: 35.2. Standard deviation K: 494.
Checking for periodicity.
Setting the multigrid structure.
MG level: 0 -> CVs: 5233. Agglomeration rate 1/1.00. CFL 5.
MG level: 1 -> CVs: 1533. Agglomeration rate 1/3.41. CFL 4.06.
MG level: 2 -> CVs: 443. Agglomeration rate 1/3.46. CFL 3.27.
MG level: 3 -> CVs: 125. Agglomeration rate 1/3.54. CFL 2.61.
Computing wall distances.
Wetted area = 2.03 m.
Area projection in the x-plane = 0.11 m, y-plane = 1 m.

------------------------- Driver information --------------------------
A Fluid driver has been instantiated.

------------------------ Iteration Preprocessing ------------------------
Zone 1: Euler/Navier-Stokes/RANS flow iteration.

------------------------- Solver Preprocessing --------------------------
Inviscid flow: Computing density based on free-stream
temperature and pressure using the ideal gas law.
Force coefficients computed using free-stream values.
-- Input conditions:
Fluid Model: STANDARD_AIR 
Specific gas constant: 287.058 N.m/kg.K.
Specific gas constant (non-dim): 1
Specific Heat Ratio: 1.4
Free-stream static pressure: 101325 Pa.
Free-stream total pressure: 154454 Pa.
Free-stream temperature: 288.15 K.
Free-stream density: 1.22498 kg/m^3.
Free-stream velocity: (272.173, 5.93883) m/s. Magnitude: 272.238 m/s (529.186 KTS).
Free-stream total energy per unit mass: 243846 m^2/s^2.
-- Reference values:
Reference specific gas constant: 287.058 N.m/kg.K.
Reference pressure: 101325 Pa.
Reference temperature: 288.15 K.
Reference density: 1.22498 kg/m^3.
Reference velocity: 287.603 m/s.
Reference energy per unit mass: 82715.8 m^2/s^2.
-- Resulting non-dimensional state:
Mach number (non-dim): 0.8
Specific gas constant (non-dim): 1
Free-stream temperature (non-dim): 1
Free-stream pressure (non-dim): 1
Free-stream density (non-dim): 1
Free-stream velocity (non-dim): (0.946348, 0.0206494). Magnitude: 0.946573
Free-stream total energy per unit mass (non-dim): 2.948

Initialize Jacobian structure (Euler). MG level: 0.
Initialize Jacobian structure (Euler). MG level: 1.
Initialize Jacobian structure (Euler). MG level: 2.
Initialize Jacobian structure (Euler). MG level: 3.

----------------- Integration and Numerics Preprocessing ----------------
Integration Preprocessing.
Numerics Preprocessing.

------------------------------ Begin Solver -----------------------------

---------------------- Local Time Stepping Summary ----------------------
MG level: 0 -> Min. DT: 0.000222817. Max. DT: 1.81404. CFL: 5.
MG level: 1 -> Min. DT: 0.000367793. Max. DT: 2.77326. CFL: 4.05935.
MG level: 2 -> Min. DT: 0.000502717. Max. DT: 3.70662. CFL: 3.27325.
MG level: 3 -> Min. DT: 0.00044651. Max. DT: 4.74469. CFL: 2.6081.
-------------------------------------------------------------------------

----------------------- Residual Evolution Summary ----------------------
log10[Maximum residual]: -2.56784.
Maximum residual point 97, located at (0.00056, -0.00425329).
-------------------------------------------------------------------------

 Iter    Time(s)     Res[Rho]     Res[RhoE]      CL(Total)      CD(Total)
    0   0.178624    -3.624323     -3.027946       0.089110       0.086891
    1   0.177672    -3.508525     -2.889591       0.129415       0.045062
    2   0.176891    -3.690198     -3.104522       0.163535       0.030385
    3   0.176646    -3.706371     -3.137797       0.191976       0.021075
    4   0.176420    -3.751871     -3.188472       0.219568       0.015379
    5   0.176201    -3.781000     -3.230301       0.244933       0.011522
    6   0.176165    -3.796845     -3.248340       0.266271       0.008741
    7   0.176336    -3.836432     -3.283820       0.283000       0.006707
    8   0.176234    -3.901098     -3.352492       0.295575       0.005231
    9   0.176195    -3.961619     -3.425883       0.304754       0.004196
   10   0.176160    -3.997590     -3.468310       0.311242       0.003509
   11   0.176043    -4.029795     -3.498554       0.315671       0.003067
   12   0.175980    -4.073983     -3.542195       0.318616       0.002785
   13   0.176046    -4.125581     -3.599079       0.320573       0.002602
   14   0.176003    -4.175746     -3.657560       0.321917       0.002481
   15   0.176022    -4.221681     -3.709193       0.322901       0.002396
   16   0.175951    -4.265474     -3.754594       0.323664       0.002331
   17   0.175887    -4.309337     -3.798967       0.324278       0.002271
   18   0.175937    -4.353388     -3.845035       0.324794       0.002211
   19   0.175931    -4.397041     -3.892277       0.325242       0.002149
   20   0.175907    -4.439731     -3.938910       0.325647       0.002084
   21   0.175882    -4.481358     -3.983940       0.326019       0.002019
   22   0.175831    -4.521654     -4.026900       0.326356       0.001956
   23   0.175814    -4.560491     -4.067835       0.326649       0.001896
   24   0.175845    -4.598319     -4.107493       0.326892       0.001842
   25   0.175863    -4.635900     -4.146676       0.327087       0.001794
   26   0.175876    -4.673720     -4.185763       0.327242       0.001752
   27   0.175847    -4.711835     -4.224658       0.327367       0.001716
   28   0.175850    -4.749443     -4.262639       0.327473       0.001685
   29   0.175842    -4.785790     -4.299187       0.327570       0.001658
   30   0.175892    -4.820091     -4.333650       0.327661       0.001634
   31   0.175884    -4.852074     -4.365912       0.327748       0.001611
   32   0.175873    -4.881906     -4.396292       0.327827       0.001589
   33   0.175858    -4.909958     -4.425150       0.327894       0.001567
   34   0.175845    -4.936774     -4.452952       0.327947       0.001544
   35   0.175873    -4.962868     -4.480122       0.327984       0.001521
   36   0.175864    -4.988216     -4.506402       0.328003       0.001496
   37   0.175864    -5.013014     -4.531935       0.328003       0.001471
   38   0.175854    -5.037421     -4.556845       0.327986       0.001446
   39   0.175848    -5.061501     -4.581202       0.327953       0.001420

---------------------- Local Time Stepping Summary ----------------------
MG level: 0 -> Min. DT: 0.0002482. Max. DT: 1.81401. CFL: 5.
MG level: 1 -> Min. DT: 0.000391563. Max. DT: 2.7719. CFL: 4.05935.
MG level: 2 -> Min. DT: 0.000521102. Max. DT: 3.70549. CFL: 3.27325.
MG level: 3 -> Min. DT: 0.000458531. Max. DT: 4.74764. CFL: 2.6081.
-------------------------------------------------------------------------

----------------------- Residual Evolution Summary ----------------------
log10[Maximum residual]: -4.12242.
Maximum residual point 613, located at (0.713035, 0.0681966).
-------------------------------------------------------------------------

 Iter    Time(s)     Res[Rho]     Res[RhoE]      CL(Total)      CD(Total)
   40   0.175829    -5.085333     -4.605126       0.327906       0.001395
   41   0.175879    -5.108957     -4.628663       0.327849       0.001371
   42   0.175864    -5.132144     -4.651586       0.327784       0.001348
   43   0.175867    -5.154522     -4.673587       0.327711       0.001327
   44   0.175866    -5.175843     -4.694544       0.327636       0.001309
   45   0.175849    -5.195851     -4.714320       0.327562       0.001292
   46   0.175832    -5.214380     -4.732833       0.327493       0.001278
   47   0.175862    -5.231383     -4.750072       0.327433       0.001266
   48   0.175856    -5.247028     -4.766175       0.327384       0.001257
   49   0.175859    -5.261554     -4.781295       0.327349       0.001249
   50   0.175848    -5.275268     -4.795606       0.327328       0.001244
   51   0.175842    -5.288467     -4.809301       0.327323       0.001240
   52   0.175867    -5.301438     -4.822606       0.327333       0.001238
   53   0.175877    -5.314393     -4.835704       0.327357       0.001237
   54   0.175869    -5.327620     -4.848932       0.327394       0.001236
   55   0.175867    -5.341148     -4.862326       0.327440       0.001236
   56   0.175866    -5.355054     -4.876007       0.327493       0.001236
   57   0.175856    -5.369422     -4.890167       0.327549       0.001237
   58   0.175887    -5.384369     -4.905026       0.327604       0.001237
   59   0.175883    -5.399677     -4.920333       0.327654       0.001236
   60   0.175891    -5.415230     -4.935982       0.327698       0.001236
   61   0.175880    -5.430970     -4.951954       0.327731       0.001234
   62   0.175877    -5.446796     -4.968128       0.327753       0.001233
   63   0.175881    -5.462646     -4.984397       0.327761       0.001230
   64   0.175908    -5.478501     -5.000692       0.327755       0.001227
   65   0.175892    -5.494274     -5.016850       0.327735       0.001224
   66   0.175883    -5.509867     -5.032731       0.327702       0.001221
   67   0.175869    -5.525203     -5.048242       0.327656       0.001217
   68   0.175867    -5.540149     -5.063238       0.327599       0.001213
   69   0.175875    -5.554651     -5.077699       0.327534       0.001210
   70   0.175881    -5.568636     -5.091577       0.327461       0.001206
   71   0.175870    -5.582109     -5.104928       0.327383       0.001203
   72   0.175861    -5.595163     -5.117894       0.327303       0.001200
   73   0.175855    -5.607893     -5.130574       0.327223       0.001197
   74   0.175844    -5.620385     -5.143046       0.327145       0.001195
   75   0.175868    -5.632704     -5.155359       0.327071       0.001193
   76   0.175866    -5.645070     -5.167746       0.327004       0.001191
   77   0.175855    -5.657540     -5.180232       0.326944       0.001190
   78   0.175851    -5.670137     -5.192788       0.326893       0.001189
   79   0.175840    -5.682940     -5.205522       0.326852       0.001189

---------------------- Local Time Stepping Summary ----------------------
MG level: 0 -> Min. DT: 0.000247751. Max. DT: 1.81401. CFL: 5.
MG level: 1 -> Min. DT: 0.000390548. Max. DT: 2.7719. CFL: 4.05935.
MG level: 2 -> Min. DT: 0.000519978. Max. DT: 3.7055. CFL: 3.27325.
MG level: 3 -> Min. DT: 0.000457491. Max. DT: 4.74764. CFL: 2.6081.
-------------------------------------------------------------------------

----------------------- Residual Evolution Summary ----------------------
log10[Maximum residual]: -4.60716.
Maximum residual point 1206, located at (0.393154, 0.136981).
-------------------------------------------------------------------------

 Iter    Time(s)     Res[Rho]     Res[RhoE]      CL(Total)      CD(Total)
   80   0.175829    -5.696071     -5.218566       0.326821       0.001189
   81   0.175854    -5.709603     -5.231991       0.326801       0.001189
   82   0.175841    -5.723566     -5.245804       0.326791       0.001190
   83   0.175838    -5.738066     -5.260135       0.326792       0.001190
   84   0.175829    -5.753204     -5.275137       0.326802       0.001191
   85   0.175828    -5.768888     -5.290695       0.326822       0.001192
   86   0.175835    -5.785135     -5.306840       0.326850       0.001193
   87   0.175849    -5.801894     -5.323539       0.326885       0.001194
   88   0.175836    -5.819160     -5.340809       0.326926       0.001195
   89   0.175826    -5.836828     -5.358533       0.326972       0.001196
   90   0.175816    -5.854751     -5.376567       0.327023       0.001197
   91   0.175810    -5.872778     -5.394788       0.327076       0.001197
   92   0.175822    -5.890760     -5.413057       0.327131       0.001198
   93   0.175817    -5.908613     -5.431294       0.327187       0.001198
   94   0.175809    -5.926175     -5.449306       0.327244       0.001198
   95   0.175803    -5.943403     -5.467048       0.327300       0.001198
   96   0.175800    -5.960241     -5.484444       0.327355       0.001198
   97   0.175799    -5.976616     -5.501388       0.327409       0.001198
   98   0.175821    -5.992543     -5.517872       0.327460       0.001198
   99   0.175816    -6.008076     -5.533925       0.327509       0.001197
  100   0.175808    -6.023294     -5.549602       0.327555       0.001197
  101   0.175798    -6.038236     -5.564890       0.327599       0.001196
  102   0.175795    -6.053021     -5.579905       0.327640       0.001196
  103   0.175792    -6.067769     -5.594763       0.327678       0.001195
  104   0.175807    -6.082609     -5.609595       0.327714       0.001194
  105   0.175800    -6.097632     -5.624491       0.327746       0.001193
  106   0.175796    -6.112962     -5.639575       0.327775       0.001193
  107   0.175790    -6.128711     -5.654971       0.327802       0.001192
  108   0.175784    -6.144893     -5.670699       0.327826       0.001191
  109   0.175801    -6.161580     -5.686861       0.327846       0.001191
  110   0.175796    -6.178783     -5.703507       0.327864       0.001190
  111   0.175787    -6.196512     -5.720690       0.327880       0.001190
  112   0.175783    -6.214748     -5.738421       0.327893       0.001189
  113   0.175780    -6.233485     -5.756730       0.327903       0.001188
  114   0.175776    -6.252697     -5.775611       0.327911       0.001188
  115   0.175792    -6.272314     -5.795000       0.327917       0.001187
  116   0.175790    -6.292249     -5.814815       0.327921       0.001187
  117   0.175787    -6.312339     -5.834891       0.327923       0.001186
  118   0.175782    -6.332515     -5.855215       0.327924       0.001186
  119   0.175777    -6.352676     -5.875693       0.327923       0.001186

---------------------- Local Time Stepping Summary ----------------------
MG level: 0 -> Min. DT: 0.000247717. Max. DT: 1.81401. CFL: 5.
MG level: 1 -> Min. DT: 0.000390452. Max. DT: 2.7719. CFL: 4.05935.
MG level: 2 -> Min. DT: 0.000519923. Max. DT: 3.70549. CFL: 3.27325.
MG level: 3 -> Min. DT: 0.000457382. Max. DT: 4.74765. CFL: 2.6081.
-------------------------------------------------------------------------

----------------------- Residual Evolution Summary ----------------------
log10[Maximum residual]: -5.22033.
Maximum residual point 970, located at (0.465505, 0.117516).
-------------------------------------------------------------------------

 Iter    Time(s)     Res[Rho]     Res[RhoE]      CL(Total)      CD(Total)
  120   0.175770    -6.372643     -5.896106       0.327921       0.001185
  121   0.175789    -6.392275     -5.916296       0.327917       0.001185
  122   0.175780    -6.411451     -5.936131       0.327912       0.001185
  123   0.175775    -6.430051     -5.955447       0.327907       0.001184
  124   0.175769    -6.447996     -5.974127       0.327901       0.001184
  125   0.175763    -6.465238     -5.992071       0.327894       0.001184
  126   0.175770    -6.481746     -6.009195       0.327887       0.001184
  127   0.175770    -6.497553     -6.025500       0.327880       0.001184
  128   0.175764    -6.512741     -6.041040       0.327873       0.001184
  129   0.175761    -6.527426     -6.055908       0.327866       0.001183
  130   0.175759    -6.541698     -6.070160       0.327859       0.001183
  131   0.175753    -6.555728     -6.083987       0.327853       0.001183
  132   0.175769    -6.569659     -6.097550       0.327848       0.001183
  133   0.175767    -6.583644     -6.111021       0.327843       0.001183
  134   0.175761    -6.597811     -6.124557       0.327840       0.001183
  135   0.175761    -6.612253     -6.138286       0.327837       0.001183
  136   0.175754    -6.627032     -6.152301       0.327835       0.001183
  137   0.175749    -6.642165     -6.166649       0.327834       0.001183
  138   0.175761    -6.657680     -6.181398       0.327834       0.001184
  139   0.175759    -6.673573     -6.196582       0.327835       0.001184
  140   0.175758    -6.689824     -6.212210       0.327837       0.001184
  141   0.175752    -6.706405     -6.228280       0.327840       0.001184
  142   0.175748    -6.723251     -6.244745       0.327844       0.001184
  143   0.175752    -6.740267     -6.261522       0.327848       0.001184
  144   0.175758    -6.757385     -6.278559       0.327854       0.001184
  145   0.175751    -6.774498     -6.295741       0.327860       0.001184
  146   0.175748    -6.791530     -6.312996       0.327866       0.001184
  147   0.175744    -6.808440     -6.330276       0.327873       0.001184
  148   0.175769    -6.825155     -6.347475       0.327881       0.001184
  149   0.175782    -6.841616     -6.364505       0.327889       0.001184
  150   0.175778    -6.857789     -6.381300       0.327897       0.001185
  151   0.175783    -6.873666     -6.397832       0.327905       0.001185
  152   0.175794    -6.889258     -6.414073       0.327914       0.001185
  153   0.175793    -6.904588     -6.429996       0.327922       0.001185
  154   0.175794    -6.919688     -6.445606       0.327930       0.001185
  155   0.175810    -6.934583     -6.460909       0.327938       0.001185
  156   0.175804    -6.949308     -6.475924       0.327946       0.001185
  157   0.175801    -6.963906     -6.490682       0.327954       0.001184
  158   0.175808    -6.978431     -6.505232       0.327961       0.001184
  159   0.175809    -6.992962     -6.519660       0.327968       0.001184

---------------------- Local Time Stepping Summary ----------------------
MG level: 0 -> Min. DT: 0.000247709. Max. DT: 1.81401. CFL: 5.
MG level: 1 -> Min. DT: 0.000390421. Max. DT: 2.7719. CFL: 4.05935.
MG level: 2 -> Min. DT: 0.000519911. Max. DT: 3.70549. CFL: 3.27325.
MG level: 3 -> Min. DT: 0.000457362. Max. DT: 4.74765. CFL: 2.6081.
-------------------------------------------------------------------------

----------------------- Residual Evolution Summary ----------------------
log10[Maximum residual]: -5.9109.
Maximum residual point 1206, located at (0.393154, 0.136981).
-------------------------------------------------------------------------

 Iter    Time(s)     Res[Rho]     Res[RhoE]      CL(Total)      CD(Total)
  160   0.175812    -7.007578     -6.534057       0.327975       0.001184
  161   0.175822    -7.022360     -6.548524       0.327981       0.001184
  162   0.175832    -7.037376     -6.563150       0.327987       0.001184
  163   0.175834    -7.052673     -6.578003       0.327992       0.001184
  164   0.175830    -7.068298     -6.593151       0.327997       0.001184
  165   0.175842    -7.084288     -6.608656       0.328001       0.001184
  166   0.175856    -7.100667     -6.624561       0.328005       0.001184
  167   0.175861    -7.117452     -6.640903       0.328008       0.001184
  168   0.175863    -7.134649     -6.657709       0.328012       0.001184
  169   0.175871    -7.152245     -6.674982       0.328014       0.001183
  170   0.175889    -7.170210     -6.692708       0.328016       0.001183
  171   0.175888    -7.188498     -6.710851       0.328018       0.001183
  172   0.175905    -7.207050     -6.729359       0.328020       0.001183
  173   0.175901    -7.225796     -6.748169       0.328021       0.001183
  174   0.175901    -7.244649     -6.767192       0.328022       0.001183
  175   0.175908    -7.263527     -6.786341       0.328022       0.001183
  176   0.175906    -7.282340     -6.805517       0.328023       0.001183
  177   0.175912    -7.300998     -6.824613       0.328023       0.001183
  178   0.175918    -7.319418     -6.843526       0.328023       0.001183
  179   0.175928    -7.337534     -6.862169       0.328022       0.001183
  180   0.175927    -7.355273     -6.880438       0.328022       0.001183
  181   0.175924    -7.372574     -6.898240       0.328022       0.001183
  182   0.175938    -7.389404     -6.915520       0.328021       0.001182
  183   0.175946    -7.405751     -6.932244       0.328021       0.001182
  184   0.175943    -7.421631     -6.948403       0.328020       0.001182
  185   0.175944    -7.437078     -6.964016       0.328020       0.001182
  186   0.175940    -7.452148     -6.979128       0.328019       0.001182
  187   0.175937    -7.466902     -6.993801       0.328019       0.001182
  188   0.175934    -7.481406     -7.008107       0.328018       0.001182
  189   0.175946    -7.495730     -7.022126       0.328018       0.001182
  190   0.175944    -7.509946     -7.035948       0.328018       0.001182
  191   0.175941    -7.524122     -7.049660       0.328017       0.001182
  192   0.175946    -7.538312     -7.063337       0.328017       0.001182
  193   0.175943    -7.552584     -7.077070       0.328017       0.001182
  194   0.175947    -7.566985     -7.090931       0.328017       0.001182
  195   0.175947    -7.581546     -7.104967       0.328018       0.001182
  196   0.175955    -7.596208     -7.119118       0.328018       0.001182
  197   0.175953    -7.611062     -7.133536       0.328018       0.001182
  198   0.175952    -7.626095     -7.148205       0.328019       0.001182
  199   0.175959    -7.641301     -7.163125       0.328019       0.001182

---------------------- Local Time Stepping Summary ----------------------
MG level: 0 -> Min. DT: 0.000247711. Max. DT: 1.81401. CFL: 5.
MG level: 1 -> Min. DT: 0.000390421. Max. DT: 2.7719. CFL: 4.05935.
MG level: 2 -> Min. DT: 0.00051991. Max. DT: 3.70549. CFL: 3.27325.
MG level: 3 -> Min. DT: 0.000457361. Max. DT: 4.74765. CFL: 2.6081.
-------------------------------------------------------------------------

----------------------- Residual Evolution Summary ----------------------
log10[Maximum residual]: -6.56849.
Maximum residual point 732, located at (0.409686, 0.0963886).
-------------------------------------------------------------------------

 Iter    Time(s)     Res[Rho]     Res[RhoE]      CL(Total)      CD(Total)
  200   0.175972    -7.656666     -7.178286       0.328020       0.001182
  201   0.175968    -7.672154     -7.193660       0.328020       0.001182
  202   0.175966    -7.687721     -7.209203       0.328021       0.001182
  203   0.175968    -7.703319     -7.224867       0.328022       0.001182
  204   0.175965    -7.718896     -7.240594       0.328023       0.001182
  205   0.175962    -7.734400     -7.256323       0.328024       0.001182
  206   0.175973    -7.749782     -7.271994       0.328025       0.001182
  207   0.175971    -7.764998     -7.287547       0.328026       0.001182
  208   0.175971    -7.780000     -7.302910       0.328027       0.001182
  209   0.175978    -7.794773     -7.318062       0.328027       0.001182
  210   0.175976    -7.809309     -7.332975       0.328028       0.001182
  211   0.175979    -7.823613     -7.347629       0.328029       0.001182
  212   0.175980    -7.837701     -7.362020       0.328030       0.001182
  213   0.175976    -7.851598     -7.376163       0.328031       0.001182
  214   0.175973    -7.865340     -7.390084       0.328032       0.001182
  215   0.175970    -7.878973     -7.403822       0.328033       0.001182
  216   0.175967    -7.892549     -7.417428       0.328034       0.001182
  217   0.175974    -7.906123     -7.430960       0.328035       0.001182
  218   0.175971    -7.919755     -7.444482       0.328035       0.001182
  219   0.175968    -7.933497     -7.458055       0.328036       0.001182
  220   0.175964    -7.947394     -7.471731       0.328037       0.001182
  221   0.175960    -7.961486     -7.485563       0.328037       0.001182
  222   0.175957    -7.975820     -7.499614       0.328038       0.001182
  223   0.175965    -7.990429     -7.513931       0.328038       0.001182
  224   0.175962    -8.005336     -7.528548       0.328039       0.001182
  225   0.175960    -8.020552     -7.543492       0.328039       0.001182
  226   0.175956    -8.036078     -7.558777       0.328040       0.001182
  227   0.175956    -8.051907     -7.574408       0.328040       0.001182
  228   0.175956    -8.068022     -7.590377       0.328040       0.001182
  229   0.175961    -8.084395     -7.606665       0.328040       0.001182
  230   0.175957    -8.100993     -7.623243       0.328041       0.001182
  231   0.175956    -8.117772     -7.640071       0.328041       0.001182
  232   0.175953    -8.134684     -7.657101       0.328041       0.001182
  233   0.175949    -8.151677     -7.674279       0.328041       0.001182
  234   0.175958    -8.168696     -7.691541       0.328041       0.001182
  235   0.175956    -8.185685     -7.708826       0.328041       0.001182
  236   0.175952    -8.202592     -7.726066       0.328041       0.001182
  237   0.175951    -8.219367     -7.743199       0.328041       0.001182
  238   0.175947    -8.235978     -7.760181       0.328041       0.001182
  239   0.175948    -8.252387     -7.776950       0.328041       0.001182

---------------------- Local Time Stepping Summary ----------------------
MG level: 0 -> Min. DT: 0.000247711. Max. DT: 1.81401. CFL: 5.
MG level: 1 -> Min. DT: 0.00039042. Max. DT: 2.7719. CFL: 4.05935.
MG level: 2 -> Min. DT: 0.00051991. Max. DT: 3.70549. CFL: 3.27325.
MG level: 3 -> Min. DT: 0.00045736. Max. DT: 4.74765. CFL: 2.6081.
-------------------------------------------------------------------------

----------------------- Residual Evolution Summary ----------------------
log10[Maximum residual]: -7.05744.
Maximum residual point 1183, located at (0.596031, 0.136515).
-------------------------------------------------------------------------

 Iter    Time(s)     Res[Rho]     Res[RhoE]      CL(Total)      CD(Total)
  240   0.175953    -8.268562     -7.793455       0.328041       0.001182
  241   0.175948    -8.284484     -7.809667       0.328041       0.001182
  242   0.175945    -8.300147     -7.825568       0.328041       0.001182
  243   0.175942    -8.315561     -7.841156       0.328041       0.001182
  244   0.175940    -8.330745     -7.856441       0.328041       0.001182
  245   0.175940    -8.345726     -7.871446       0.328041       0.001182
  246   0.175942    -8.360537     -7.886205       0.328041       0.001182
  247   0.175941    -8.375217     -7.900759       0.328041       0.001182
  248   0.175940    -8.389805     -7.915154       0.328041       0.001182
  249   0.175938    -8.404339     -7.929439       0.328041       0.001182
  250   0.175935    -8.418858     -7.943663       0.328041       0.001182

-------------------------- File Output Summary --------------------------
Writing comma-separated values (CSV) surface files.
Merging connectivities in the Master node.
Merging coordinates in the Master node.
Merging solution in the Master node.
Writing SU2 native restart file.
Writing Paraview ASCII volume solution file.
Writing Paraview ASCII surface solution file.
Writing the forces breakdown file.
-------------------------------------------------------------------------

  251   0.176207    -8.433393     -7.957872       0.328041       0.001182
  252   0.176204    -8.447973     -7.972107       0.328041       0.001182
  253   0.176202    -8.462619     -7.986404       0.328041       0.001182
  254   0.176201    -8.477344     -8.000789       0.328041       0.001182
  255   0.176199    -8.492155     -8.015282       0.328041       0.001182
  256   0.176199    -8.507052     -8.029892       0.328041       0.001182
  257   0.176204    -8.522026     -8.044622       0.328041       0.001182
  258   0.176198    -8.537063     -8.059465       0.328041       0.001182
  259   0.176195    -8.552144     -8.074407       0.328041       0.001182
  260   0.176191    -8.567243     -8.089425       0.328042       0.001182
  261   0.176185    -8.582334     -8.104493       0.328042       0.001182
  262   0.176191    -8.597387     -8.119580       0.328042       0.001182
  263   0.176187    -8.612373     -8.134651       0.328042       0.001182
  264   0.176183    -8.627264     -8.149673       0.328042       0.001182
  265   0.176179    -8.642036     -8.164612       0.328042       0.001182
  266   0.176176    -8.656664     -8.179431       0.328042       0.001182
  267   0.176174    -8.671135     -8.194110       0.328042       0.001182
  268   0.176180    -8.685449     -8.208640       0.328042       0.001182
  269   0.176177    -8.699606     -8.223005       0.328043       0.001182
  270   0.176173    -8.713617     -8.237203       0.328043       0.001182
  271   0.176169    -8.727496     -8.251242       0.328043       0.001182
  272   0.176168    -8.741263     -8.265133       0.328043       0.001182
  273   0.176164    -8.754944     -8.278899       0.328043       0.001182
  274   0.176171    -8.768570     -8.292566       0.328043       0.001182
  275   0.176168    -8.782173     -8.306168       0.328043       0.001182
  276   0.176166    -8.795789     -8.319741       0.328043       0.001182

-------------------------- File Output Summary --------------------------
Writing comma-separated values (CSV) surface files.
Merging connectivities in the Master node.
Merging coordinates in the Master node.
Merging solution in the Master node.
Writing SU2 native restart file.
Writing Paraview ASCII volume solution file.
Writing Paraview ASCII surface solution file.
Writing the forces breakdown file.
-------------------------------------------------------------------------

History file, closed.

------------------------- Solver Postprocessing -------------------------
Deleted CNumerics container.
Deleted CIntegration container.
Deleted CSolver container.
Deleted CIteration container.
Deleted CInterpolator container.
Deleted CTransfer container.
Deleted CGeometry container.
Deleted CFreeFormDefBox class.
Deleted CSurfaceMovement class.
Deleted CVolumetricMovement class.
Deleted CConfig container.
Deleted COutput class.
-------------------------------------------------------------------------

Completed in 48.883054 seconds on 1 core.

------------------------- Exit Success (SU2_CFD) ------------------------

