
-------------------------------------------------------------------------
|    ___ _   _ ___                                                      |
|   / __| | | |_  )   Release 5.0.0  "Raven"                            |
|   \__ \ |_| |/ /                                                      |
|   |___/\___//___|   Suite (Computational Fluid Dynamics Code)         |
|                                                                       |
-------------------------------------------------------------------------
| SU2 Original Developers: Dr. Francisco D. Palacios.                   |
|                          Dr. Thomas D. Economon.                      |
-------------------------------------------------------------------------
| SU2 Developers:                                                       |
| - Prof. Juan J. Alonso's group at Stanford University.                |
| - Prof. Piero Colonna's group at Delft University of Technology.      |
| - Prof. Nicolas R. Gauger's group at Kaiserslautern U. of Technology. |
| - Prof. Alberto Guardone's group at Polytechnic University of Milan.  |
| - Prof. Rafael Palacios' group at Imperial College London.            |
| - Prof. Edwin van der Weide's group at the University of Twente.      |
| - Prof. Vincent Terrapon's group at the University of Liege.          |
-------------------------------------------------------------------------
| Copyright (C) 2012-2017 SU2, the open-source CFD code.                |
|                                                                       |
| SU2 is free software; you can redistribute it and/or                  |
| modify it under the terms of the GNU Lesser General Public            |
| License as published by the Free Software Foundation; either          |
| version 2.1 of the License, or (at your option) any later version.    |
|                                                                       |
| SU2 is distributed in the hope that it will be useful,                |
| but WITHOUT ANY WARRANTY; without even the implied warranty of        |
| MERCHANTABILITY or FITNESS FOR A PARTICULAR PURPOSE. See the GNU      |
| Lesser General Public License for more details.                       |
|                                                                       |
| You should have received a copy of the GNU Lesser General Public      |
| License along with SU2. If not, see <http://www.gnu.org/licenses/>.   |
-------------------------------------------------------------------------

------------------------ Physical Case Definition -----------------------
Compressible Euler equations.
Mach number: 0.8.
Angle of attack (AoA): 1.25 deg, and angle of sideslip (AoS): 0 deg.
No restart solution, use the values at infinity (freestream).
Non-Dimensional simulation (P=1.0, Rho=1.0, T=1.0 at the farfield).
The reference length/area (force coefficient) is 1.
The reference length (moment computation) is 1.
Reference origin (moment computation) is (0.25, 0, 0).
Surface(s) where the force coefficients are evaluated: airfoil.
Surface(s) where the objective function is evaluated: airfoil.
Surface(s) plotted in the output file: airfoil.
Surface(s) affected by the design variables: airfoil.
Input mesh file name: mesh_NACA0012_inv_deform.su2

---------------------- Space Numerical Integration ----------------------
Jameson-Schmidt-Turkel scheme for the flow inviscid terms.
JST viscous coefficients (1st, 2nd & 4th): 0.15, 0.5, 0.02.
The method includes a grid stretching correction (p = 0.3).
Second order integration.
Gradient Computation using weighted Least-Squares method.

---------------------- Time Numerical Integration -----------------------
Local time stepping (steady state simulation).
Euler implicit method for the flow equations.
W Multigrid Cycle, with 3 multigrid levels.
Damping factor for the residual restriction: 1.
Damping factor for the correction prolongation: 1.
No CFL adaptation.
Multigrid Level:                       0     1     2     3
Courant-Friedrichs-Lewy number:        5
MG PreSmooth coefficients:             1     2     3     3
MG PostSmooth coefficients:            0     0     0     0
MG CorrecSmooth coefficients:          0     0     0     0

------------------------- Convergence Criteria --------------------------
Maximum number of iterations: 2000.
Cauchy criteria for Drag using 100 elements and epsilon 1e-06.
Start convergence criteria at iteration 10.

-------------------------- Output Information ---------------------------
Writing a flow solution every 250 iterations.
Writing the convergence history every 1 iterations.
The output file format is Paraview ASCII (.vtk).
Convergence history file name: history_direct.
Forces breakdown file name: forces_breakdown.dat.
Surface flow coefficients file name: surface_flow.
Flow variables file name: flow.
Restart flow file name: restart_flow.dat.

------------------- Config File Boundary Information --------------------
Euler wall boundary marker(s): airfoil.
Far-field boundary marker(s): farfield.

---------------------- Read Grid File Information -----------------------
Two dimensional problem.
5233 points.
2 surface markers.
200 boundary elements in index 0 (Marker = airfoil).
50 boundary elements in index 1 (Marker = farfield).
10216 triangles.

------------------------- Geometry Preprocessing ------------------------
Setting point connectivity.
Renumbering points (Reverse Cuthill McKee Ordering).
Recomputing point connectivity.
Setting element connectivity.
Checking the numerical grid orientation.
Identifying edges and vertices.
Computing centers of gravity.
Setting the control volume structure.
Area of the computational grid: 1.25e+03.
Searching for the closest normal neighbors to the surfaces.
Compute the surface curvature.
Max K: 7.84e+03. Mean K: 35.2. Standard deviation K: 494.
Checking for periodicity.
Setting the multigrid structure.
MG level: 0 -> CVs: 5233. Agglomeration rate 1/1.00. CFL 5.
MG level: 1 -> CVs: 1533. Agglomeration rate 1/3.41. CFL 4.06.
MG level: 2 -> CVs: 443. Agglomeration rate 1/3.46. CFL 3.27.
MG level: 3 -> CVs: 125. Agglomeration rate 1/3.54. CFL 2.61.
Computing wall distances.
Wetted area = 2.03 m.
Area projection in the x-plane = 0.11 m, y-plane = 1 m.

------------------------- Driver information --------------------------
A Fluid driver has been instantiated.

------------------------ Iteration Preprocessing ------------------------
Zone 1: Euler/Navier-Stokes/RANS flow iteration.

------------------------- Solver Preprocessing --------------------------
Inviscid flow: Computing density based on free-stream
temperature and pressure using the ideal gas law.
Force coefficients computed using free-stream values.
-- Input conditions:
Fluid Model: STANDARD_AIR 
Specific gas constant: 287.058 N.m/kg.K.
Specific gas constant (non-dim): 1
Specific Heat Ratio: 1.4
Free-stream static pressure: 101325 Pa.
Free-stream total pressure: 154454 Pa.
Free-stream temperature: 288.15 K.
Free-stream density: 1.22498 kg/m^3.
Free-stream velocity: (272.173, 5.93883) m/s. Magnitude: 272.238 m/s (529.186 KTS).
Free-stream total energy per unit mass: 243846 m^2/s^2.
-- Reference values:
Reference specific gas constant: 287.058 N.m/kg.K.
Reference pressure: 101325 Pa.
Reference temperature: 288.15 K.
Reference density: 1.22498 kg/m^3.
Reference velocity: 287.603 m/s.
Reference energy per unit mass: 82715.8 m^2/s^2.
-- Resulting non-dimensional state:
Mach number (non-dim): 0.8
Specific gas constant (non-dim): 1
Free-stream temperature (non-dim): 1
Free-stream pressure (non-dim): 1
Free-stream density (non-dim): 1
Free-stream velocity (non-dim): (0.946348, 0.0206494). Magnitude: 0.946573
Free-stream total energy per unit mass (non-dim): 2.948

Initialize Jacobian structure (Euler). MG level: 0.
Initialize Jacobian structure (Euler). MG level: 1.
Initialize Jacobian structure (Euler). MG level: 2.
Initialize Jacobian structure (Euler). MG level: 3.

----------------- Integration and Numerics Preprocessing ----------------
Integration Preprocessing.
Numerics Preprocessing.

------------------------------ Begin Solver -----------------------------

---------------------- Local Time Stepping Summary ----------------------
MG level: 0 -> Min. DT: 0.000222801. Max. DT: 1.81399. CFL: 5.
MG level: 1 -> Min. DT: 0.000367754. Max. DT: 2.77322. CFL: 4.05935.
MG level: 2 -> Min. DT: 0.000502706. Max. DT: 3.70655. CFL: 3.27325.
MG level: 3 -> Min. DT: 0.000446497. Max. DT: 4.74461. CFL: 2.6081.
-------------------------------------------------------------------------

----------------------- Residual Evolution Summary ----------------------
log10[Maximum residual]: -2.56719.
Maximum residual point 97, located at (0.00056, -0.00425841).
-------------------------------------------------------------------------

 Iter    Time(s)     Res[Rho]     Res[RhoE]      CL(Total)      CD(Total)
    0   0.183977    -3.623590     -3.027213       0.089213       0.087088
    1   0.186885    -3.507715     -2.888755       0.129377       0.045161
    2   0.188085    -3.689369     -3.103698       0.163402       0.030471
    3   0.189082    -3.705540     -3.136977       0.191745       0.021150
    4   0.189784    -3.750990     -3.187616       0.219276       0.015442
    5   0.188613    -3.780077     -3.229405       0.244594       0.011576
    6   0.187203    -3.795928     -3.247444       0.265894       0.008787
    7   0.186182    -3.835525     -3.282938       0.282593       0.006748
    8   0.185598    -3.900140     -3.351573       0.295145       0.005269
    9   0.185059    -3.960559     -3.424875       0.304308       0.004233
   10   0.184107    -3.996497     -3.467270       0.310785       0.003545
   11   0.183523    -4.028666     -3.497471       0.315211       0.003102
   12   0.182896    -4.072748     -3.541002       0.318161       0.002819
   13   0.182407    -4.124193     -3.597736       0.320130       0.002635
   14   0.181999    -4.174293     -3.656162       0.321496       0.002513
   15   0.181660    -4.220238     -3.707812       0.322507       0.002428
   16   0.181244    -4.263983     -3.753149       0.323297       0.002360
   17   0.180870    -4.307667     -3.797325       0.323937       0.002297
   18   0.180665    -4.351427     -3.843105       0.324475       0.002235
   19   0.180582    -4.394651     -3.889966       0.324942       0.002170
   20   0.180360    -4.436991     -3.936362       0.325363       0.002102
   21   0.180175    -4.478430     -3.981297       0.325746       0.002034
   22   0.180080    -4.518699     -4.024240       0.326089       0.001967
   23   0.179905    -4.557699     -4.065299       0.326384       0.001904
   24   0.179755    -4.595899     -4.105233       0.326627       0.001846
   25   0.179679    -4.633771     -4.144576       0.326820       0.001794
   26   0.179607    -4.671936     -4.183836       0.326972       0.001750
   27   0.179470    -4.710000     -4.222592       0.327095       0.001710
   28   0.179417    -4.747395     -4.260445       0.327200       0.001676
   29   0.179322    -4.783310     -4.296627       0.327299       0.001646
   30   0.179192    -4.817035     -4.330587       0.327394       0.001619
   31   0.179084    -4.848464     -4.362392       0.327488       0.001595
   32   0.179063    -4.877900     -4.392481       0.327575       0.001571
   33   0.179011    -4.905999     -4.421539       0.327654       0.001547
   34   0.178964    -4.933105     -4.449792       0.327722       0.001522
   35   0.178952    -4.959676     -4.477506       0.327776       0.001497
   36   0.178913    -4.985844     -4.504646       0.327813       0.001471
   37   0.178818    -5.011734     -4.531295       0.327835       0.001444
   38   0.178763    -5.037346     -4.557383       0.327840       0.001418
   39   0.178788    -5.062440     -4.582675       0.327831       0.001391

---------------------- Local Time Stepping Summary ----------------------
MG level: 0 -> Min. DT: 0.000248166. Max. DT: 1.81396. CFL: 5.
MG level: 1 -> Min. DT: 0.000391532. Max. DT: 2.77185. CFL: 4.05935.
MG level: 2 -> Min. DT: 0.000521093. Max. DT: 3.70543. CFL: 3.27325.
MG level: 3 -> Min. DT: 0.000458516. Max. DT: 4.74756. CFL: 2.6081.
-------------------------------------------------------------------------

----------------------- Residual Evolution Summary ----------------------
log10[Maximum residual]: -4.06156.
Maximum residual point 613, located at (0.713048, 0.0681514).
-------------------------------------------------------------------------

 Iter    Time(s)     Res[Rho]     Res[RhoE]      CL(Total)      CD(Total)
   40   0.178759    -5.087122     -4.607382       0.327810       0.001365
   41   0.178724    -5.111357     -4.631472       0.327779       0.001340
   42   0.178696    -5.134814     -4.654585       0.327741       0.001317
   43   0.178610    -5.157284     -4.676660       0.327696       0.001296
   44   0.178681    -5.178443     -4.697496       0.327649       0.001277
   45   0.178939    -5.198061     -4.716959       0.327602       0.001260
   46   0.179378    -5.216160     -4.735134       0.327560       0.001245
   47   0.179692    -5.232868     -4.752119       0.327525       0.001233
   48   0.179876    -5.248459     -4.768127       0.327500       0.001223
   49   0.179927    -5.263334     -4.783490       0.327486       0.001216
   50   0.179934    -5.277804     -4.798373       0.327484       0.001211
   51   0.179885    -5.292247     -4.813071       0.327495       0.001207
   52   0.179814    -5.306794     -4.827638       0.327517       0.001204
   53   0.179772    -5.321453     -4.842087       0.327550       0.001203
   54   0.179700    -5.336285     -4.856601       0.327591       0.001202
   55   0.179626    -5.351273     -4.871282       0.327638       0.001202
   56   0.179587    -5.366386     -4.886190       0.327689       0.001202
   57   0.179515    -5.381544     -4.901300       0.327739       0.001202
   58   0.179456    -5.396793     -4.916735       0.327787       0.001202
   59   0.179407    -5.412073     -4.932398       0.327829       0.001201
   60   0.179325    -5.427355     -4.948192       0.327863       0.001200
   61   0.179283    -5.442641     -4.964059       0.327887       0.001199
   62   0.179251    -5.457922     -4.979899       0.327901       0.001197
   63   0.179204    -5.473147     -4.995565       0.327904       0.001195
   64   0.179171    -5.488265     -5.010933       0.327895       0.001193
   65   0.179158    -5.503213     -5.025903       0.327876       0.001190
   66   0.179398    -5.518034     -5.040562       0.327846       0.001187
   67   0.179385    -5.532536     -5.054694       0.327809       0.001184
   68   0.179360    -5.546677     -5.068309       0.327764       0.001181
   69   0.179359    -5.560290     -5.081290       0.327715       0.001178
   70   0.179309    -5.573301     -5.093667       0.327662       0.001176
   71   0.179266    -5.585702     -5.105526       0.327609       0.001173
   72   0.179257    -5.597507     -5.116940       0.327556       0.001171
   73   0.179239    -5.608749     -5.127955       0.327506       0.001170
   74   0.179219    -5.619543     -5.138696       0.327460       0.001168
   75   0.179231    -5.630038     -5.149289       0.327419       0.001168
   76   0.179204    -5.640424     -5.159898       0.327386       0.001167
   77   0.179155    -5.650885     -5.170656       0.327360       0.001167
   78   0.179122    -5.661561     -5.181638       0.327343       0.001167
   79   0.179191    -5.672689     -5.193086       0.327334       0.001167

---------------------- Local Time Stepping Summary ----------------------
MG level: 0 -> Min. DT: 0.000247734. Max. DT: 1.81396. CFL: 5.
MG level: 1 -> Min. DT: 0.000390526. Max. DT: 2.77186. CFL: 4.05935.
MG level: 2 -> Min. DT: 0.000519986. Max. DT: 3.70543. CFL: 3.27325.
MG level: 3 -> Min. DT: 0.000457469. Max. DT: 4.74756. CFL: 2.6081.
-------------------------------------------------------------------------

----------------------- Residual Evolution Summary ----------------------
log10[Maximum residual]: -4.53008.
Maximum residual point 1071, located at (0.547353, 0.139131).
-------------------------------------------------------------------------

 Iter    Time(s)     Res[Rho]     Res[RhoE]      CL(Total)      CD(Total)
   80   0.179221    -5.684455     -5.205151       0.327333       0.001168
   81   0.179200    -5.696932     -5.217862       0.327341       0.001168
   82   0.179190    -5.710291     -5.231425       0.327357       0.001169
   83   0.179186    -5.724393     -5.245650       0.327380       0.001170
   84   0.179164    -5.739238     -5.260563       0.327410       0.001171
   85   0.179174    -5.754769     -5.276140       0.327446       0.001172
   86   0.179162    -5.770919     -5.292346       0.327486       0.001173
   87   0.179195    -5.787584     -5.309111       0.327530       0.001174
   88   0.179246    -5.804430     -5.326051       0.327577       0.001175
   89   0.179226    -5.821280     -5.343018       0.327626       0.001176
   90   0.179192    -5.838006     -5.359946       0.327676       0.001176
   91   0.179158    -5.854386     -5.376605       0.327726       0.001176
   92   0.179141    -5.870276     -5.392828       0.327775       0.001177
   93   0.179116    -5.885587     -5.408507       0.327824       0.001177
   94   0.179098    -5.900331     -5.423650       0.327870       0.001176
   95   0.179091    -5.914540     -5.438271       0.327915       0.001176
   96   0.179063    -5.928253     -5.452355       0.327957       0.001176
   97   0.179260    -5.941568     -5.465968       0.327997       0.001175
   98   0.179247    -5.954620     -5.479230       0.328033       0.001175
   99   0.179215    -5.967523     -5.492235       0.328067       0.001174
  100   0.179187    -5.980425     -5.505120       0.328097       0.001174
  101   0.179183    -5.993493     -5.518064       0.328125       0.001173
  102   0.179174    -6.006876     -5.531234       0.328149       0.001172
  103   0.179159    -6.020668     -5.544716       0.328171       0.001171
  104   0.179129    -6.034997     -5.558681       0.328189       0.001171
  105   0.179120    -6.049947     -5.573242       0.328205       0.001170
  106   0.179101    -6.065552     -5.588437       0.328219       0.001170
  107   0.179085    -6.081736     -5.604183       0.328229       0.001169
  108   0.179097    -6.098404     -5.620438       0.328238       0.001168
  109   0.179076    -6.115516     -5.637237       0.328244       0.001168
  110   0.179036    -6.133003     -5.654538       0.328248       0.001167
  111   0.179043    -6.150766     -5.672237       0.328251       0.001167
  112   0.179157    -6.168710     -5.690249       0.328251       0.001167
  113   0.179283    -6.186787     -5.708543       0.328250       0.001166
  114   0.179466    -6.204914     -5.727009       0.328248       0.001166
  115   0.179616    -6.223011     -5.745570       0.328245       0.001166
  116   0.179637    -6.240990     -5.764113       0.328241       0.001166
  117   0.179626    -6.258761     -5.782528       0.328236       0.001165
  118   0.179593    -6.276332     -5.800822       0.328231       0.001165
  119   0.179586    -6.293539     -5.818728       0.328225       0.001165

---------------------- Local Time Stepping Summary ----------------------
MG level: 0 -> Min. DT: 0.000247703. Max. DT: 1.81396. CFL: 5.
MG level: 1 -> Min. DT: 0.000390419. Max. DT: 2.77185. CFL: 4.05935.
MG level: 2 -> Min. DT: 0.000519917. Max. DT: 3.70542. CFL: 3.27325.
MG level: 3 -> Min. DT: 0.000457365. Max. DT: 4.74757. CFL: 2.6081.
-------------------------------------------------------------------------

----------------------- Residual Evolution Summary ----------------------
log10[Maximum residual]: -5.16969.
Maximum residual point 1455, located at (0.458713, 0.190499).
-------------------------------------------------------------------------

 Iter    Time(s)     Res[Rho]     Res[RhoE]      CL(Total)      CD(Total)
  120   0.179574    -6.310329     -5.836157       0.328218       0.001165
  121   0.179541    -6.326679     -5.853054       0.328212       0.001165
  122   0.179527    -6.342564     -5.869371       0.328205       0.001165
  123   0.179522    -6.357969     -5.885063       0.328199       0.001165
  124   0.179602    -6.372951     -5.900177       0.328192       0.001165
  125   0.179686    -6.387573     -5.914773       0.328187       0.001165
  126   0.179668    -6.401918     -5.928935       0.328181       0.001165
  127   0.179644    -6.416072     -5.942749       0.328177       0.001165
  128   0.179627    -6.430216     -5.956426       0.328173       0.001166
  129   0.179738    -6.444430     -5.970060       0.328170       0.001166
  130   0.179722    -6.458849     -5.983835       0.328168       0.001166
  131   0.179687    -6.473550     -5.997861       0.328167       0.001166
  132   0.179661    -6.488637     -6.012283       0.328167       0.001166
  133   0.179663    -6.504155     -6.027161       0.328168       0.001166
  134   0.179651    -6.520183     -6.042592       0.328170       0.001167
  135   0.179639    -6.536638     -6.058490       0.328173       0.001167
  136   0.179635    -6.553603     -6.075025       0.328177       0.001167
  137   0.179601    -6.571015     -6.092141       0.328182       0.001167
  138   0.179631    -6.588855     -6.109833       0.328188       0.001167
  139   0.179766    -6.607043     -6.128019       0.328195       0.001168
  140   0.179845    -6.625428     -6.146547       0.328202       0.001168
  141   0.179882    -6.643881     -6.165319       0.328210       0.001168
  142   0.179903    -6.662280     -6.184198       0.328218       0.001168
  143   0.179872    -6.680516     -6.203052       0.328226       0.001168
  144   0.179861    -6.698489     -6.221754       0.328235       0.001168
  145   0.179858    -6.716100     -6.240169       0.328244       0.001168
  146   0.179835    -6.733275     -6.258188       0.328253       0.001169
  147   0.179819    -6.749954     -6.275704       0.328262       0.001169
  148   0.179810    -6.766116     -6.292647       0.328270       0.001169
  149   0.179819    -6.781775     -6.308985       0.328279       0.001169
  150   0.179942    -6.796986     -6.324725       0.328287       0.001169
  151   0.179959    -6.811837     -6.339926       0.328295       0.001169
  152   0.179952    -6.826424     -6.354670       0.328302       0.001169
  153   0.179935    -6.840824     -6.369022       0.328309       0.001169
  154   0.179918    -6.855147     -6.383101       0.328315       0.001169
  155   0.179910    -6.869518     -6.397051       0.328320       0.001168
  156   0.179888    -6.884062     -6.411027       0.328325       0.001168
  157   0.179863    -6.898879     -6.425163       0.328330       0.001168
  158   0.179854    -6.914034     -6.439561       0.328333       0.001168
  159   0.179842    -6.929615     -6.454354       0.328336       0.001168

---------------------- Local Time Stepping Summary ----------------------
MG level: 0 -> Min. DT: 0.000247698. Max. DT: 1.81396. CFL: 5.
MG level: 1 -> Min. DT: 0.000390392. Max. DT: 2.77185. CFL: 4.05935.
MG level: 2 -> Min. DT: 0.000519905. Max. DT: 3.70542. CFL: 3.27325.
MG level: 3 -> Min. DT: 0.000457346. Max. DT: 4.74757. CFL: 2.6081.
-------------------------------------------------------------------------

----------------------- Residual Evolution Summary ----------------------
log10[Maximum residual]: -5.75558.
Maximum residual point 1206, located at (0.393179, 0.137195).
-------------------------------------------------------------------------

 Iter    Time(s)     Res[Rho]     Res[RhoE]      CL(Total)      CD(Total)
  160   0.179826    -6.945658     -6.469606       0.328339       0.001168
  161   0.179809    -6.962190     -6.485383       0.328341       0.001168
  162   0.179828    -6.979191     -6.501703       0.328342       0.001168
  163   0.179979    -6.996639     -6.518581       0.328342       0.001168
  164   0.180076    -7.014490     -6.535994       0.328342       0.001168
  165   0.180132    -7.032705     -6.553924       0.328342       0.001168
  166   0.180145    -7.051223     -6.572329       0.328341       0.001167
  167   0.180161    -7.069977     -6.591154       0.328340       0.001167
  168   0.180132    -7.088872     -6.610302       0.328338       0.001167
  169   0.180127    -7.107805     -6.629668       0.328336       0.001167
  170   0.180122    -7.126672     -6.649130       0.328334       0.001167
  171   0.180115    -7.145367     -6.668558       0.328331       0.001167
  172   0.180111    -7.163776     -6.687784       0.328328       0.001167
  173   0.180207    -7.181829     -6.706703       0.328326       0.001167
  174   0.180189    -7.199460     -6.725203       0.328323       0.001167
  175   0.180168    -7.216613     -6.743173       0.328320       0.001167
  176   0.180154    -7.233264     -6.760542       0.328317       0.001167
  177   0.180141    -7.249414     -6.777267       0.328314       0.001167
  178   0.180124    -7.265105     -6.793361       0.328312       0.001167
  179   0.180107    -7.280397     -6.808863       0.328309       0.001167
  180   0.180097    -7.295370     -6.823843       0.328307       0.001167
  181   0.180073    -7.310118     -6.838398       0.328304       0.001167
  182   0.180047    -7.324742     -6.852645       0.328302       0.001167
  183   0.180035    -7.339350     -6.866723       0.328300       0.001167
  184   0.180048    -7.354059     -6.880778       0.328299       0.001167
  185   0.180147    -7.368969     -6.894948       0.328297       0.001167
  186   0.180242    -7.384163     -6.909356       0.328296       0.001167
  187   0.180283    -7.399712     -6.924110       0.328295       0.001167
  188   0.180296    -7.415665     -6.939294       0.328294       0.001167
  189   0.180268    -7.432070     -6.954989       0.328294       0.001167
  190   0.180260    -7.448937     -6.971233       0.328293       0.001167
  191   0.180255    -7.466251     -6.988044       0.328293       0.001167
  192   0.180229    -7.483981     -7.005412       0.328293       0.001167
  193   0.180219    -7.502079     -7.023306       0.328293       0.001167
  194   0.180266    -7.520478     -7.041669       0.328294       0.001167
  195   0.180369    -7.539096     -7.060425       0.328294       0.001167
  196   0.180353    -7.557841     -7.079478       0.328295       0.001167
  197   0.180346    -7.576618     -7.098726       0.328296       0.001167
  198   0.180333    -7.595309     -7.118028       0.328297       0.001167
  199   0.180316    -7.613800     -7.137242       0.328297       0.001167

---------------------- Local Time Stepping Summary ----------------------
MG level: 0 -> Min. DT: 0.000247696. Max. DT: 1.81396. CFL: 5.
MG level: 1 -> Min. DT: 0.000390391. Max. DT: 2.77185. CFL: 4.05935.
MG level: 2 -> Min. DT: 0.000519903. Max. DT: 3.70542. CFL: 3.27325.
MG level: 3 -> Min. DT: 0.000457345. Max. DT: 4.74757. CFL: 2.6081.
-------------------------------------------------------------------------

----------------------- Residual Evolution Summary ----------------------
log10[Maximum residual]: -6.41821.
Maximum residual point 970, located at (0.465535, 0.11769).
-------------------------------------------------------------------------

 Iter    Time(s)     Res[Rho]     Res[RhoE]      CL(Total)      CD(Total)
  200   0.180314    -7.631985     -7.156230       0.328298       0.001167
  201   0.180300    -7.649774     -7.174860       0.328299       0.001167
  202   0.180275    -7.667093     -7.193009       0.328300       0.001167
  203   0.180259    -7.683892     -7.210580       0.328301       0.001167
  204   0.180289    -7.700148     -7.227505       0.328302       0.001167
  205   0.180369    -7.715868     -7.243751       0.328303       0.001167
  206   0.180389    -7.731087     -7.259323       0.328304       0.001167
  207   0.180388    -7.745868     -7.274266       0.328305       0.001167
  208   0.180364    -7.760294     -7.288658       0.328306       0.001167
  209   0.180355    -7.774466     -7.302606       0.328307       0.001167
  210   0.180333    -7.788496     -7.316241       0.328307       0.001167
  211   0.180325    -7.802499     -7.329702       0.328308       0.001167
  212   0.180299    -7.816588     -7.343134       0.328309       0.001167
  213   0.180291    -7.830867     -7.356677       0.328309       0.001167
  214   0.180355    -7.845429     -7.370461       0.328309       0.001167
  215   0.180356    -7.860350     -7.384597       0.328310       0.001167
  216   0.180337    -7.875690     -7.399181       0.328310       0.001167
  217   0.180326    -7.891488     -7.414282       0.328310       0.001167
  218   0.180317    -7.907762     -7.429948       0.328310       0.001167
  219   0.180303    -7.924507     -7.446201       0.328310       0.001167
  220   0.180289    -7.941701     -7.463037       0.328310       0.001167
  221   0.180281    -7.959297     -7.480429       0.328310       0.001167
  222   0.180335    -7.977230     -7.498322       0.328310       0.001167
  223   0.180409    -7.995418     -7.516641       0.328310       0.001167
  224   0.180429    -8.013765     -7.535287       0.328310       0.001167
  225   0.180437    -8.032159     -7.554139       0.328309       0.001167
  226   0.180412    -8.050489     -7.573067       0.328309       0.001167
  227   0.180400    -8.068641     -7.591932       0.328309       0.001167
  228   0.180380    -8.086500     -7.610582       0.328308       0.001167
  229   0.180371    -8.103975     -7.628885       0.328308       0.001167
  230   0.180368    -8.120986     -7.646715       0.328308       0.001167
  231   0.180346    -8.137478     -7.663968       0.328307       0.001167
  232   0.180329    -8.153423     -7.680570       0.328307       0.001167
  233   0.180325    -8.168824     -7.696483       0.328307       0.001167
  234   0.180304    -8.183717     -7.711713       0.328306       0.001167
  235   0.180336    -8.198163     -7.726304       0.328306       0.001167
  236   0.180388    -8.212250     -7.740337       0.328306       0.001167
  237   0.180376    -8.226080     -7.753923       0.328305       0.001167
  238   0.180360    -8.239760     -7.767184       0.328305       0.001167
  239   0.180380    -8.253410     -7.780272       0.328305       0.001167

---------------------- Local Time Stepping Summary ----------------------
MG level: 0 -> Min. DT: 0.000247697. Max. DT: 1.81396. CFL: 5.
MG level: 1 -> Min. DT: 0.000390391. Max. DT: 2.77185. CFL: 4.05935.
MG level: 2 -> Min. DT: 0.000519903. Max. DT: 3.70542. CFL: 3.27325.
MG level: 3 -> Min. DT: 0.000457345. Max. DT: 4.74757. CFL: 2.6081.
-------------------------------------------------------------------------

----------------------- Residual Evolution Summary ----------------------
log10[Maximum residual]: -7.0697.
Maximum residual point 1206, located at (0.393179, 0.137195).
-------------------------------------------------------------------------

 Iter    Time(s)     Res[Rho]     Res[RhoE]      CL(Total)      CD(Total)
  240   0.180428    -8.267152     -7.793340       0.328304       0.001167
  241   0.180409    -8.281092     -7.806532       0.328304       0.001167
  242   0.180390    -8.295321     -7.819974       0.328304       0.001167
  243   0.180373    -8.309912     -7.833776       0.328304       0.001167
  244   0.180356    -8.324922     -7.848032       0.328304       0.001167
  245   0.180334    -8.340391     -7.862812       0.328304       0.001167
  246   0.180316    -8.356339     -7.878165       0.328304       0.001167
  247   0.180295    -8.372765     -7.894116       0.328304       0.001167
  248   0.180274    -8.389647     -7.910662       0.328304       0.001167
  249   0.180320    -8.406941     -7.927777       0.328304       0.001167
  250   0.180377    -8.424585     -7.945408       0.328304       0.001167

-------------------------- File Output Summary --------------------------
Writing comma-separated values (CSV) surface files.
Merging connectivities in the Master node.
Merging coordinates in the Master node.
Merging solution in the Master node.
Writing SU2 native restart file.
Writing Paraview ASCII volume solution file.
Writing Paraview ASCII surface solution file.
Writing the forces breakdown file.
-------------------------------------------------------------------------

  251   0.180672    -8.442498     -7.963479       0.328304       0.001167
  252   0.180665    -8.460585     -7.981892       0.328304       0.001167
  253   0.180660    -8.478742     -8.000532       0.328304       0.001167
  254   0.180642    -8.496855     -8.019265       0.328304       0.001167
  255   0.180631    -8.514811     -8.037951       0.328304       0.001167
  256   0.180622    -8.532501     -8.056445       0.328304       0.001167
  257   0.180614    -8.549828     -8.074608       0.328304       0.001167
  258   0.180600    -8.566714     -8.092315       0.328304       0.001167
  259   0.180585    -8.583103     -8.109463       0.328305       0.001167
  260   0.180582    -8.598969     -8.125980       0.328305       0.001167
  261   0.180569    -8.614314     -8.141831       0.328305       0.001167
  262   0.180550    -8.629169     -8.157018       0.328305       0.001167
  263   0.180533    -8.643594     -8.171584       0.328305       0.001167
  264   0.180526    -8.657671     -8.185606       0.328305       0.001167
  265   0.180511    -8.671497     -8.199190       0.328305       0.001167
  266   0.180488    -8.685180     -8.212462       0.328305       0.001167
  267   0.180470    -8.698833     -8.225560       0.328305       0.001167
  268   0.180464    -8.712566     -8.238628       0.328305       0.001167
  269   0.180443    -8.726481     -8.251804       0.328305       0.001167
  270   0.180431    -8.740668     -8.265213       0.328306       0.001167
  271   0.180408    -8.755203     -8.278969       0.328306       0.001167
  272   0.180390    -8.770145     -8.293163       0.328306       0.001167
  273   0.180382    -8.785532     -8.307867       0.328306       0.001167
  274   0.180363    -8.801384     -8.323127       0.328306       0.001167
  275   0.180343    -8.817700     -8.338969       0.328306       0.001167
  276   0.180327    -8.834460     -8.355391       0.328306       0.001167
  277   0.180323    -8.851623     -8.372369       0.328306       0.001167
  278   0.180311    -8.869130     -8.389856       0.328306       0.001167
  279   0.180298    -8.886909     -8.407781       0.328306       0.001167

---------------------- Local Time Stepping Summary ----------------------
MG level: 0 -> Min. DT: 0.000247697. Max. DT: 1.81396. CFL: 5.
MG level: 1 -> Min. DT: 0.000390391. Max. DT: 2.77185. CFL: 4.05935.
MG level: 2 -> Min. DT: 0.000519903. Max. DT: 3.70542. CFL: 3.27325.
MG level: 3 -> Min. DT: 0.000457345. Max. DT: 4.74757. CFL: 2.6081.
-------------------------------------------------------------------------

----------------------- Residual Evolution Summary ----------------------
log10[Maximum residual]: -7.75804.
Maximum residual point 970, located at (0.465535, 0.11769).
-------------------------------------------------------------------------

 Iter    Time(s)     Res[Rho]     Res[RhoE]      CL(Total)      CD(Total)
  280   0.180287    -8.904869     -8.426054       0.328306       0.001167

-------------------------- File Output Summary --------------------------
Writing comma-separated values (CSV) surface files.
Merging connectivities in the Master node.
Merging coordinates in the Master node.
Merging solution in the Master node.
Writing SU2 native restart file.
Writing Paraview ASCII volume solution file.
Writing Paraview ASCII surface solution file.
Writing the forces breakdown file.
-------------------------------------------------------------------------

History file, closed.

------------------------- Solver Postprocessing -------------------------
Deleted CNumerics container.
Deleted CIntegration container.
Deleted CSolver container.
Deleted CIteration container.
Deleted CInterpolator container.
Deleted CTransfer container.
Deleted CGeometry container.
Deleted CFreeFormDefBox class.
Deleted CSurfaceMovement class.
Deleted CVolumetricMovement class.
Deleted CConfig container.
Deleted COutput class.
-------------------------------------------------------------------------

Completed in 50.743773 seconds on 1 core.

------------------------- Exit Success (SU2_CFD) ------------------------

