
-------------------------------------------------------------------------
|    ___ _   _ ___                                                      |
|   / __| | | |_  )   Release 5.0.0  "Raven"                            |
|   \__ \ |_| |/ /                                                      |
|   |___/\___//___|   Suite (Computational Fluid Dynamics Code)         |
|                                                                       |
-------------------------------------------------------------------------
| SU2 Original Developers: Dr. Francisco D. Palacios.                   |
|                          Dr. Thomas D. Economon.                      |
-------------------------------------------------------------------------
| SU2 Developers:                                                       |
| - Prof. Juan J. Alonso's group at Stanford University.                |
| - Prof. Piero Colonna's group at Delft University of Technology.      |
| - Prof. Nicolas R. Gauger's group at Kaiserslautern U. of Technology. |
| - Prof. Alberto Guardone's group at Polytechnic University of Milan.  |
| - Prof. Rafael Palacios' group at Imperial College London.            |
| - Prof. Edwin van der Weide's group at the University of Twente.      |
| - Prof. Vincent Terrapon's group at the University of Liege.          |
-------------------------------------------------------------------------
| Copyright (C) 2012-2017 SU2, the open-source CFD code.                |
|                                                                       |
| SU2 is free software; you can redistribute it and/or                  |
| modify it under the terms of the GNU Lesser General Public            |
| License as published by the Free Software Foundation; either          |
| version 2.1 of the License, or (at your option) any later version.    |
|                                                                       |
| SU2 is distributed in the hope that it will be useful,                |
| but WITHOUT ANY WARRANTY; without even the implied warranty of        |
| MERCHANTABILITY or FITNESS FOR A PARTICULAR PURPOSE. See the GNU      |
| Lesser General Public License for more details.                       |
|                                                                       |
| You should have received a copy of the GNU Lesser General Public      |
| License along with SU2. If not, see <http://www.gnu.org/licenses/>.   |
-------------------------------------------------------------------------

------------------------ Physical Case Definition -----------------------
Continuous Euler adjoint equations.
Mach number: 0.8.
Angle of attack (AoA): 1.25 deg, and angle of sideslip (AoS): 0 deg.
No restart solution, use the values at infinity (freestream).
Read flow solution from: solution_flow.dat.
Non-Dimensional simulation (P=1.0, Rho=1.0, T=1.0 at the farfield).
The reference length/area (force coefficient) is 1.
The reference length (moment computation) is 1.
Reference origin (moment computation) is (0.25, 0, 0).
Surface(s) where the force coefficients are evaluated: airfoil.
Surface(s) where the objective function is evaluated: airfoil.
Surface(s) plotted in the output file: airfoil.
Surface(s) affected by the design variables: airfoil.
Input mesh file name: mesh_NACA0012_inv_deform.su2

----------------------- Design problem definition -----------------------
CL objective function.

---------------------- Space Numerical Integration ----------------------
Jameson-Schmidt-Turkel scheme for the adjoint inviscid terms.
JST viscous coefficients (1st, 2nd, & 4th): 0.15, 0.5, 0.02.
The method includes a grid stretching correction (p = 0.3).
Second order integration.
The reference sharp edge distance is: 0.15. 
Gradient Computation using weighted Least-Squares method.

---------------------- Time Numerical Integration -----------------------
Local time stepping (steady state simulation).
Euler implicit method for the adjoint equations.
W Multigrid Cycle, with 3 multigrid levels.
Damping factor for the residual restriction: 1.
Damping factor for the correction prolongation: 1.
No CFL adaptation.
Multigrid Level:                       0     1     2     3
Courant-Friedrichs-Lewy number:      2.5
MG PreSmooth coefficients:             1     2     3     3
MG PostSmooth coefficients:            0     0     0     0
MG CorrecSmooth coefficients:          0     0     0     0

------------------------- Convergence Criteria --------------------------
Maximum number of iterations: 2000.
Cauchy criteria for geo. sensitivity using 100 elements and epsilon 1e-06.
Start convergence criteria at iteration 10.

-------------------------- Output Information ---------------------------
Writing a flow solution every 250 iterations.
Writing the convergence history every 1 iterations.
The output file format is Paraview ASCII (.vtk).
Convergence history file name: history_adjoint.
Forces breakdown file name: forces_breakdown.dat.
Adjoint solution file name: solution_adj.dat.
Restart adjoint file name: restart_adj.dat.
Adjoint variables file name: adjoint.
Surface adjoint coefficients file name: surface_adjoint.

------------------- Config File Boundary Information --------------------
Euler wall boundary marker(s): airfoil.
Far-field boundary marker(s): farfield.

---------------------- Read Grid File Information -----------------------
Two dimensional problem.
5233 points.
2 surface markers.
200 boundary elements in index 0 (Marker = airfoil).
50 boundary elements in index 1 (Marker = farfield).
10216 triangles.

------------------------- Geometry Preprocessing ------------------------
Setting point connectivity.
Renumbering points (Reverse Cuthill McKee Ordering).
Recomputing point connectivity.
Setting element connectivity.
Checking the numerical grid orientation.
Identifying edges and vertices.
Computing centers of gravity.
Setting the control volume structure.
Area of the computational grid: 1.25e+03.
Searching for the closest normal neighbors to the surfaces.
Compute the surface curvature.
Max K: 7.84e+03. Mean K: 35.2. Standard deviation K: 494.
Checking for periodicity.
Setting the multigrid structure.
MG level: 0 -> CVs: 5233. Agglomeration rate 1/1.00. CFL 2.5.
MG level: 1 -> CVs: 1533. Agglomeration rate 1/3.41. CFL 2.03.
MG level: 2 -> CVs: 443. Agglomeration rate 1/3.46. CFL 1.64.
MG level: 3 -> CVs: 125. Agglomeration rate 1/3.54. CFL 1.3.
Computing wall distances.
Wetted area = 2.03 m.
Area projection in the x-plane = 0.11 m, y-plane = 1 m.

------------------------- Driver information --------------------------
A Fluid driver has been instantiated.

------------------------ Iteration Preprocessing ------------------------
Zone 1: adjoint Euler/Navier-Stokes/RANS flow iteration.

------------------------- Solver Preprocessing --------------------------
Inviscid flow: Computing density based on free-stream
temperature and pressure using the ideal gas law.
Force coefficients computed using free-stream values.
-- Input conditions:
Fluid Model: STANDARD_AIR 
Specific gas constant: 287.058 N.m/kg.K.
Specific gas constant (non-dim): 1
Specific Heat Ratio: 1.4
Free-stream static pressure: 101325 Pa.
Free-stream total pressure: 154454 Pa.
Free-stream temperature: 288.15 K.
Free-stream density: 1.22498 kg/m^3.
Free-stream velocity: (272.173, 5.93883) m/s. Magnitude: 272.238 m/s (529.186 KTS).
Free-stream total energy per unit mass: 243846 m^2/s^2.
-- Reference values:
Reference specific gas constant: 287.058 N.m/kg.K.
Reference pressure: 101325 Pa.
Reference temperature: 288.15 K.
Reference density: 1.22498 kg/m^3.
Reference velocity: 287.603 m/s.
Reference energy per unit mass: 82715.8 m^2/s^2.
-- Resulting non-dimensional state:
Mach number (non-dim): 0.8
Specific gas constant (non-dim): 1
Free-stream temperature (non-dim): 1
Free-stream pressure (non-dim): 1
Free-stream density (non-dim): 1
Free-stream velocity (non-dim): (0.946348, 0.0206494). Magnitude: 0.946573
Free-stream total energy per unit mass (non-dim): 2.948

Initialize Jacobian structure (Euler). MG level: 0.
Initialize Jacobian structure (Adjoint Euler). MG level: 0.
Initialize Jacobian structure (Euler). MG level: 1.
Initialize Jacobian structure (Adjoint Euler). MG level: 1.
Initialize Jacobian structure (Euler). MG level: 2.
Initialize Jacobian structure (Adjoint Euler). MG level: 2.
Initialize Jacobian structure (Euler). MG level: 3.
Initialize Jacobian structure (Adjoint Euler). MG level: 3.

----------------- Integration and Numerics Preprocessing ----------------
Integration Preprocessing.
Numerics Preprocessing.

------------------------------ Begin Solver -----------------------------
Begin direct solver to store flow data (single iteration).
Compute residuals to check the convergence of the direct problem.
log10[Maximum residual]: -7.74872, located at point 970.
End direct solver, begin adjoint problem.

---------------------- Local Time Stepping Summary ----------------------
MG level: 0 -> Min. DT: 0.000123848. Max. DT: 0.90698. CFL: 2.5.
MG level: 1 -> Min. DT: 0.000195195. Max. DT: 1.38593. CFL: 2.02968.
MG level: 2 -> Min. DT: 0.000259951. Max. DT: 1.85271. CFL: 1.63662.
MG level: 3 -> Min. DT: 0.000228672. Max. DT: 2.37378. CFL: 1.30405.
-------------------------------------------------------------------------

log10[Maximum residual]: -2.29547.
Maximum residual point 146, located at (0.44878, 0.0495361).

 Iter    Time(s)   Res[Psi_Rho]     Res[Psi_E]      Sens_Geo      Sens_AoA
    0   0.476943      -3.240604      -3.060204   -7.4431e-01    7.3589e-03
    1   0.329051      -2.601142      -2.939425   -1.1987e+00    7.2397e-02
    2   0.278045      -2.462527      -2.944756   -8.1725e-02    1.3997e-01
    3   0.253961      -2.412008      -2.924415    9.0756e-01    1.6633e-01
    4   0.239567      -2.439896      -2.931775    2.3074e+00    1.7363e-01
    5   0.229172      -2.461355      -2.969040    4.2898e+00    1.8514e-01
    6   0.222066      -2.471914      -3.000268    6.5730e+00    2.0032e-01
    7   0.216757      -2.483434      -3.018158    8.9114e+00    2.1416e-01
    8   0.212468      -2.492094      -3.019696    1.1181e+01    2.2628e-01
    9   0.208809      -2.492812      -3.016302    1.3309e+01    2.3768e-01
   10   0.205851      -2.485179      -3.010756    1.5242e+01    2.4850e-01
   11   0.203370      -2.473514      -3.003937    1.6954e+01    2.5858e-01
   12   0.201389      -2.462503      -2.997757    1.8455e+01    2.6784e-01
   13   0.199601      -2.454633      -2.992389    1.9764e+01    2.7633e-01
   14   0.198092      -2.450392      -2.988003    2.0905e+01    2.8408e-01
   15   0.196703      -2.449109      -2.985126    2.1893e+01    2.9114e-01
   16   0.195484      -2.449901      -2.983989    2.2743e+01    2.9756e-01
   17   0.194425      -2.452191      -2.984412    2.3470e+01    3.0341e-01
   18   0.193557      -2.455717      -2.986017    2.4090e+01    3.0873e-01
   19   0.192734      -2.460420      -2.988476    2.4615e+01    3.1358e-01
   20   0.191945      -2.466345      -2.991615    2.5057e+01    3.1800e-01
   21   0.191225      -2.473573      -2.995384    2.5422e+01    3.2203e-01
   22   0.190584      -2.482181      -2.999796    2.5718e+01    3.2571e-01
   23   0.190029      -2.492213      -3.004868    2.5946e+01    3.2907e-01
   24   0.189493      -2.503675      -3.010592    2.6114e+01    3.3213e-01
   25   0.189013      -2.516527      -3.016922    2.6224e+01    3.3493e-01
   26   0.188559      -2.530686      -3.023773    2.6281e+01    3.3748e-01
   27   0.188110      -2.546038      -3.031035    2.6291e+01    3.3982e-01
   28   0.187714      -2.562450      -3.038582    2.6256e+01    3.4197e-01
   29   0.187384      -2.579783      -3.046286    2.6182e+01    3.4393e-01
   30   0.187039      -2.597905      -3.054029    2.6072e+01    3.4573e-01
   31   0.186750      -2.616693      -3.061709    2.5930e+01    3.4739e-01
   32   0.186456      -2.636037      -3.069251    2.5759e+01    3.4891e-01
   33   0.186196      -2.655836      -3.076601    2.5563e+01    3.5031e-01
   34   0.185983      -2.675993      -3.083725    2.5345e+01    3.5159e-01
   35   0.185813      -2.696416      -3.090607    2.5108e+01    3.5276e-01
   36   0.185645      -2.717010      -3.097240    2.4852e+01    3.5383e-01
   37   0.185460      -2.737682      -3.103623    2.4582e+01    3.5481e-01
   38   0.185288      -2.758335      -3.109756    2.4298e+01    3.5571e-01
   39   0.185145      -2.778872      -3.115640    2.4003e+01    3.5652e-01

---------------------- Local Time Stepping Summary ----------------------
MG level: 0 -> Min. DT: 0.0001238. Max. DT: 0.907. CFL: 2.5.
MG level: 1 -> Min. DT: 0.0001952. Max. DT: 1.386. CFL: 2.03.
MG level: 2 -> Min. DT: 0.00026. Max. DT: 1.853. CFL: 1.637.
MG level: 3 -> Min. DT: 0.0002287. Max. DT: 2.374. CFL: 1.304.
-------------------------------------------------------------------------

log10[Maximum residual]: -1.726.
Maximum residual point 5147, located at (-15.27, 0.9204).

 Iter    Time(s)   Res[Psi_Rho]     Res[Psi_E]      Sens_Geo      Sens_AoA
   40   0.185037      -2.799200      -3.121277    2.3697e+01    3.5726e-01
   41   0.184887      -2.819223      -3.126667    2.3383e+01    3.5793e-01
   42   0.184759      -2.838855      -3.131815    2.3061e+01    3.5853e-01
   43   0.184616      -2.858013      -3.136726    2.2733e+01    3.5908e-01
   44   0.184479      -2.876620      -3.141409    2.2400e+01    3.5957e-01
   45   0.184359      -2.894612      -3.145875    2.2062e+01    3.6002e-01
   46   0.184248      -2.911932      -3.150139    2.1721e+01    3.6042e-01
   47   0.184179      -2.928536      -3.154215    2.1377e+01    3.6078e-01
   48   0.184103      -2.944390      -3.158121    2.1030e+01    3.6110e-01
   49   0.184016      -2.959473      -3.161874    2.0683e+01    3.6139e-01
   50   0.183950      -2.973773      -3.165490    2.0334e+01    3.6165e-01
   51   0.183888      -2.987293      -3.168985    1.9985e+01    3.6188e-01
   52   0.183861      -3.000040      -3.172374    1.9637e+01    3.6209e-01
   53   0.183832      -3.012036      -3.175668    1.9289e+01    3.6228e-01
   54   0.183799      -3.023305      -3.178880    1.8942e+01    3.6245e-01
   55   0.183753      -3.033879      -3.182019    1.8597e+01    3.6260e-01
   56   0.183729      -3.043795      -3.185094    1.8253e+01    3.6274e-01
   57   0.183702      -3.053091      -3.188112    1.7912e+01    3.6287e-01
   58   0.183677      -3.061809      -3.191078    1.7574e+01    3.6299e-01
   59   0.183643      -3.069989      -3.193999    1.7239e+01    3.6310e-01
   60   0.183607      -3.077674      -3.196879    1.6907e+01    3.6320e-01
   61   0.183575      -3.084902      -3.199720    1.6579e+01    3.6330e-01
   62   0.183550      -3.091712      -3.202526    1.6255e+01    3.6340e-01
   63   0.183525      -3.098142      -3.205300    1.5935e+01    3.6349e-01
   64   0.183501      -3.104225      -3.208044    1.5619e+01    3.6358e-01
   65   0.183464      -3.109994      -3.210758    1.5307e+01    3.6366e-01
   66   0.183440      -3.115477      -3.213446    1.5001e+01    3.6375e-01
   67   0.183422      -3.120703      -3.216107    1.4699e+01    3.6383e-01
   68   0.183410      -3.125697      -3.218744    1.4402e+01    3.6392e-01
   69   0.183397      -3.130480      -3.221356    1.4110e+01    3.6400e-01
   70   0.183383      -3.135073      -3.223945    1.3823e+01    3.6409e-01
   71   0.183353      -3.139495      -3.226512    1.3542e+01    3.6417e-01
   72   0.183330      -3.143762      -3.229056    1.3266e+01    3.6426e-01
   73   0.183319      -3.147890      -3.231579    1.2994e+01    3.6434e-01
   74   0.183298      -3.151891      -3.234081    1.2728e+01    3.6443e-01
   75   0.183289      -3.155778      -3.236563    1.2468e+01    3.6451e-01
   76   0.183269      -3.159561      -3.239025    1.2212e+01    3.6460e-01
   77   0.183238      -3.163249      -3.241467    1.1961e+01    3.6468e-01
   78   0.183223      -3.166851      -3.243891    1.1716e+01    3.6477e-01
   79   0.183202      -3.170375      -3.246296    1.1476e+01    3.6485e-01

---------------------- Local Time Stepping Summary ----------------------
MG level: 0 -> Min. DT: 0.0001238. Max. DT: 0.907. CFL: 2.5.
MG level: 1 -> Min. DT: 0.0001952. Max. DT: 1.386. CFL: 2.03.
MG level: 2 -> Min. DT: 0.00026. Max. DT: 1.853. CFL: 1.637.
MG level: 3 -> Min. DT: 0.0002287. Max. DT: 2.374. CFL: 1.304.
-------------------------------------------------------------------------

log10[Maximum residual]: -1.838.
Maximum residual point 198, located at (0.9998, 3.633e-05).

 Iter    Time(s)   Res[Psi_Rho]     Res[Psi_E]      Sens_Geo      Sens_AoA
   80   0.183189      -3.173826      -3.248684    1.1240e+01    3.6494e-01
   81   0.183176      -3.177212      -3.251054    1.1010e+01    3.6502e-01
   82   0.183154      -3.180536      -3.253408    1.0784e+01    3.6510e-01
   83   0.183136      -3.183804      -3.255746    1.0563e+01    3.6518e-01
   84   0.183110      -3.187020      -3.258069    1.0346e+01    3.6526e-01
   85   0.183093      -3.190186      -3.260376    1.0134e+01    3.6533e-01
   86   0.183081      -3.193307      -3.262670    9.9268e+00    3.6540e-01
   87   0.183056      -3.196384      -3.264951    9.7238e+00    3.6547e-01
   88   0.183039      -3.199420      -3.267218    9.5251e+00    3.6554e-01
   89   0.183029      -3.202418      -3.269473    9.3306e+00    3.6560e-01
   90   0.183010      -3.205377      -3.271716    9.1403e+00    3.6566e-01
   91   0.183001      -3.208301      -3.273948    8.9540e+00    3.6571e-01
   92   0.182984      -3.211189      -3.276169    8.7718e+00    3.6576e-01
   93   0.182963      -3.214044      -3.278380    8.5934e+00    3.6581e-01
   94   0.182948      -3.216865      -3.280580    8.4189e+00    3.6585e-01
   95   0.182944      -3.219654      -3.282772    8.2482e+00    3.6589e-01
   96   0.182936      -3.222409      -3.284954    8.0812e+00    3.6592e-01
   97   0.182926      -3.225133      -3.287127    7.9178e+00    3.6595e-01
   98   0.182908      -3.227825      -3.289291    7.7581e+00    3.6597e-01
   99   0.182891      -3.230485      -3.291448    7.6018e+00    3.6598e-01
  100   0.182894      -3.233114      -3.293596    7.4490e+00    3.6599e-01
  101   0.182888      -3.235710      -3.295736    7.2997e+00    3.6600e-01
  102   0.182882      -3.238275      -3.297868    7.1536e+00    3.6600e-01
  103   0.182874      -3.240809      -3.299993    7.0109e+00    3.6600e-01
  104   0.182859      -3.243311      -3.302111    6.8715e+00    3.6599e-01
  105   0.182846      -3.245782      -3.304221    6.7353e+00    3.6597e-01
  106   0.182844      -3.248221      -3.306323    6.6023e+00    3.6595e-01
  107   0.182837      -3.250630      -3.308418    6.4724e+00    3.6593e-01
  108   0.182834      -3.253007      -3.310506    6.3456e+00    3.6590e-01
  109   0.182823      -3.255354      -3.312587    6.2219e+00    3.6587e-01
  110   0.182807      -3.257671      -3.314660    6.1012e+00    3.6583e-01
  111   0.182803      -3.259958      -3.316726    5.9835e+00    3.6579e-01
  112   0.182793      -3.262216      -3.318784    5.8689e+00    3.6575e-01
  113   0.182785      -3.264445      -3.320835    5.7571e+00    3.6570e-01
  114   0.182783      -3.266645      -3.322879    5.6484e+00    3.6565e-01
  115   0.182766      -3.268817      -3.324915    5.5425e+00    3.6559e-01
  116   0.182749      -3.270962      -3.326943    5.4395e+00    3.6553e-01
  117   0.182753      -3.273080      -3.328963    5.3394e+00    3.6548e-01
  118   0.182751      -3.275172      -3.330975    5.2421e+00    3.6541e-01
  119   0.182742      -3.277238      -3.332979    5.1477e+00    3.6535e-01

---------------------- Local Time Stepping Summary ----------------------
MG level: 0 -> Min. DT: 0.0001238. Max. DT: 0.907. CFL: 2.5.
MG level: 1 -> Min. DT: 0.0001952. Max. DT: 1.386. CFL: 2.03.
MG level: 2 -> Min. DT: 0.00026. Max. DT: 1.853. CFL: 1.637.
MG level: 3 -> Min. DT: 0.0002287. Max. DT: 2.374. CFL: 1.304.
-------------------------------------------------------------------------

log10[Maximum residual]: -1.866.
Maximum residual point 198, located at (0.9998, 3.633e-05).

 Iter    Time(s)   Res[Psi_Rho]     Res[Psi_E]      Sens_Geo      Sens_AoA
  120   0.182735      -3.279279      -3.334974    5.0561e+00    3.6529e-01
  121   0.182726      -3.281294      -3.336961    4.9673e+00    3.6522e-01
  122   0.182729      -3.283286      -3.338940    4.8812e+00    3.6516e-01
  123   0.182718      -3.285253      -3.340910    4.7980e+00    3.6509e-01
  124   0.182717      -3.287196      -3.342871    4.7175e+00    3.6502e-01
  125   0.182707      -3.289117      -3.344822    4.6397e+00    3.6496e-01
  126   0.182694      -3.291014      -3.346765    4.5647e+00    3.6489e-01
  127   0.182687      -3.292888      -3.348698    4.4923e+00    3.6483e-01
  128   0.182683      -3.294739      -3.350621    4.4226e+00    3.6476e-01
  129   0.182683      -3.296568      -3.352534    4.3556e+00    3.6470e-01
  130   0.182673      -3.298375      -3.354437    4.2913e+00    3.6464e-01
  131   0.182663      -3.300158      -3.356331    4.2295e+00    3.6458e-01
  132   0.182656      -3.301920      -3.358213    4.1704e+00    3.6452e-01
  133   0.182649      -3.303658      -3.360085    4.1138e+00    3.6446e-01
  134   0.182642      -3.305375      -3.361947    4.0598e+00    3.6441e-01
  135   0.182635      -3.307068      -3.363798    4.0083e+00    3.6436e-01
  136   0.182631      -3.308739      -3.365637    3.9593e+00    3.6431e-01
  137   0.182622      -3.310387      -3.367466    3.9128e+00    3.6426e-01
  138   0.182618      -3.312013      -3.369284    3.8687e+00    3.6422e-01
  139   0.182612      -3.313615      -3.371090    3.8270e+00    3.6417e-01
  140   0.182610      -3.315195      -3.372885    3.7877e+00    3.6414e-01
  141   0.182602      -3.316752      -3.374669    3.7508e+00    3.6410e-01
  142   0.182593      -3.318285      -3.376441    3.7162e+00    3.6407e-01
  143   0.182586      -3.319796      -3.378203    3.6838e+00    3.6403e-01
  144   0.182589      -3.321285      -3.379952    3.6537e+00    3.6401e-01
  145   0.182589      -3.322750      -3.381691    3.6257e+00    3.6398e-01
  146   0.182588      -3.324193      -3.383418    3.5999e+00    3.6396e-01
  147   0.182585      -3.325614      -3.385134    3.5763e+00    3.6394e-01
  148   0.182580      -3.327013      -3.386839    3.5547e+00    3.6392e-01
  149   0.182584      -3.328389      -3.388533    3.5352e+00    3.6391e-01
  150   0.182592      -3.329745      -3.390216    3.5176e+00    3.6389e-01
  151   0.182596      -3.331078      -3.391889    3.5020e+00    3.6388e-01
  152   0.182595      -3.332392      -3.393550    3.4883e+00    3.6387e-01
  153   0.182591      -3.333684      -3.395202    3.4764e+00    3.6387e-01
  154   0.182590      -3.334957      -3.396843    3.4664e+00    3.6386e-01
  155   0.182590      -3.336210      -3.398474    3.4581e+00    3.6386e-01
  156   0.182595      -3.337443      -3.400095    3.4516e+00    3.6386e-01
  157   0.182596      -3.338659      -3.401706    3.4468e+00    3.6386e-01
  158   0.182596      -3.339855      -3.403308    3.4436e+00    3.6386e-01
  159   0.182595      -3.341035      -3.404901    3.4419e+00    3.6386e-01

---------------------- Local Time Stepping Summary ----------------------
MG level: 0 -> Min. DT: 0.0001238. Max. DT: 0.907. CFL: 2.5.
MG level: 1 -> Min. DT: 0.0001952. Max. DT: 1.386. CFL: 2.03.
MG level: 2 -> Min. DT: 0.00026. Max. DT: 1.853. CFL: 1.637.
MG level: 3 -> Min. DT: 0.0002287. Max. DT: 2.374. CFL: 1.304.
-------------------------------------------------------------------------

log10[Maximum residual]: -1.902.
Maximum residual point 198, located at (0.9998, 3.633e-05).

 Iter    Time(s)   Res[Psi_Rho]     Res[Psi_E]      Sens_Geo      Sens_AoA
  160   0.182596      -3.342197      -3.406485    3.4419e+00    3.6387e-01
  161   0.182593      -3.343342      -3.408060    3.4433e+00    3.6387e-01
  162   0.182596      -3.344471      -3.409626    3.4462e+00    3.6388e-01
  163   0.182594      -3.345585      -3.411184    3.4505e+00    3.6389e-01
  164   0.182591      -3.346684      -3.412734    3.4562e+00    3.6389e-01
  165   0.182587      -3.347767      -3.414276    3.4633e+00    3.6390e-01
  166   0.182589      -3.348837      -3.415810    3.4716e+00    3.6391e-01
  167   0.182590      -3.349893      -3.417337    3.4812e+00    3.6392e-01
  168   0.182590      -3.350935      -3.418857    3.4921e+00    3.6393e-01
  169   0.182590      -3.351965      -3.420370    3.5041e+00    3.6394e-01
  170   0.182589      -3.352982      -3.421876    3.5172e+00    3.6395e-01
  171   0.182599      -3.353987      -3.423376    3.5315e+00    3.6396e-01
  172   0.182601      -3.354981      -3.424869    3.5468e+00    3.6396e-01
  173   0.182603      -3.355963      -3.426357    3.5632e+00    3.6397e-01
  174   0.182600      -3.356934      -3.427838    3.5805e+00    3.6398e-01
  175   0.182597      -3.357894      -3.429314    3.5989e+00    3.6399e-01
  176   0.182599      -3.358844      -3.430784    3.6182e+00    3.6399e-01
  177   0.182604      -3.359784      -3.432249    3.6384e+00    3.6400e-01
  178   0.182608      -3.360714      -3.433709    3.6595e+00    3.6401e-01
  179   0.182615      -3.361634      -3.435163    3.6815e+00    3.6401e-01
  180   0.182615      -3.362545      -3.436613    3.7043e+00    3.6401e-01
  181   0.182614      -3.363447      -3.438058    3.7279e+00    3.6402e-01
  182   0.182615      -3.364339      -3.439499    3.7522e+00    3.6402e-01
  183   0.182623      -3.365223      -3.440935    3.7774e+00    3.6402e-01
  184   0.182625      -3.366099      -3.442367    3.8032e+00    3.6402e-01
  185   0.182626      -3.366966      -3.443794    3.8298e+00    3.6402e-01
  186   0.182624      -3.367825      -3.445218    3.8571e+00    3.6402e-01
  187   0.182631      -3.368676      -3.446637    3.8850e+00    3.6402e-01
  188   0.182630      -3.369519      -3.448053    3.9136e+00    3.6402e-01
  189   0.182635      -3.370354      -3.449465    3.9428e+00    3.6401e-01
  190   0.182636      -3.371181      -3.450873    3.9727e+00    3.6401e-01
  191   0.182635      -3.372001      -3.452278    4.0031e+00    3.6400e-01
  192   0.182635      -3.372814      -3.453679    4.0342e+00    3.6400e-01
  193   0.182636      -3.373619      -3.455077    4.0658e+00    3.6399e-01
  194   0.182636      -3.374418      -3.456471    4.0979e+00    3.6399e-01
  195   0.182637      -3.375209      -3.457862    4.1306e+00    3.6398e-01
  196   0.182636      -3.375993      -3.459250    4.1638e+00    3.6397e-01
  197   0.182641      -3.376771      -3.460634    4.1975e+00    3.6396e-01
  198   0.182636      -3.377542      -3.462015    4.2318e+00    3.6395e-01
  199   0.182633      -3.378306      -3.463394    4.2665e+00    3.6394e-01

---------------------- Local Time Stepping Summary ----------------------
MG level: 0 -> Min. DT: 0.0001238. Max. DT: 0.907. CFL: 2.5.
MG level: 1 -> Min. DT: 0.0001952. Max. DT: 1.386. CFL: 2.03.
MG level: 2 -> Min. DT: 0.00026. Max. DT: 1.853. CFL: 1.637.
MG level: 3 -> Min. DT: 0.0002287. Max. DT: 2.374. CFL: 1.304.
-------------------------------------------------------------------------

log10[Maximum residual]: -1.919.
Maximum residual point 340, located at (0.9999, -0.0003808).

 Iter    Time(s)   Res[Psi_Rho]     Res[Psi_E]      Sens_Geo      Sens_AoA
  200   0.182632      -3.379064      -3.464769    4.3017e+00    3.6393e-01
  201   0.182622      -3.379815      -3.466141    4.3373e+00    3.6392e-01
  202   0.182618      -3.380560      -3.467510    4.3734e+00    3.6391e-01
  203   0.182611      -3.381299      -3.468876    4.4100e+00    3.6390e-01
  204   0.182619      -3.382031      -3.470239    4.4470e+00    3.6389e-01
  205   0.182620      -3.382757      -3.471599    4.4844e+00    3.6388e-01
  206   0.182618      -3.383478      -3.472957    4.5222e+00    3.6387e-01
  207   0.182612      -3.384192      -3.474311    4.5605e+00    3.6386e-01
  208   0.182604      -3.384901      -3.475663    4.5991e+00    3.6384e-01
  209   0.182602      -3.385603      -3.477012    4.6381e+00    3.6383e-01
  210   0.182599      -3.386300      -3.478358    4.6775e+00    3.6382e-01
  211   0.182607      -3.386991      -3.479701    4.7172e+00    3.6381e-01
  212   0.182606      -3.387676      -3.481042    4.7573e+00    3.6380e-01
  213   0.182616      -3.388356      -3.482380    4.7978e+00    3.6379e-01
  214   0.182622      -3.389030      -3.483715    4.8386e+00    3.6378e-01
  215   0.182629      -3.389698      -3.485048    4.8797e+00    3.6377e-01
  216   0.182642      -3.390361      -3.486378    4.9211e+00    3.6376e-01
  217   0.182647      -3.391019      -3.487705    4.9629e+00    3.6375e-01
  218   0.182655      -3.391671      -3.489030    5.0050e+00    3.6374e-01
  219   0.182658      -3.392318      -3.490353    5.0473e+00    3.6373e-01
  220   0.182664      -3.392959      -3.491672    5.0899e+00    3.6372e-01
  221   0.182666      -3.393595      -3.492990    5.1328e+00    3.6371e-01
  222   0.182663      -3.394226      -3.494305    5.1760e+00    3.6371e-01
  223   0.182659      -3.394852      -3.495617    5.2194e+00    3.6370e-01
  224   0.182653      -3.395472      -3.496927    5.2631e+00    3.6369e-01
  225   0.182649      -3.396088      -3.498235    5.3069e+00    3.6368e-01
  226   0.182652      -3.396698      -3.499540    5.3511e+00    3.6368e-01
  227   0.182653      -3.397304      -3.500844    5.3954e+00    3.6367e-01
  228   0.182647      -3.397905      -3.502145    5.4399e+00    3.6367e-01
  229   0.182641      -3.398501      -3.503443    5.4847e+00    3.6366e-01
  230   0.182634      -3.399092      -3.504740    5.5296e+00    3.6366e-01
  231   0.182636      -3.399678      -3.506035    5.5747e+00    3.6365e-01
  232   0.182634      -3.400260      -3.507327    5.6199e+00    3.6365e-01
  233   0.182632      -3.400837      -3.508618    5.6654e+00    3.6365e-01
  234   0.182624      -3.401410      -3.509906    5.7109e+00    3.6364e-01
  235   0.182614      -3.401978      -3.511193    5.7566e+00    3.6364e-01
  236   0.182609      -3.402542      -3.512478    5.8025e+00    3.6364e-01
  237   0.182599      -3.403102      -3.513761    5.8484e+00    3.6364e-01
  238   0.182590      -3.403657      -3.515043    5.8944e+00    3.6363e-01
  239   0.182582      -3.404209      -3.516322    5.9406e+00    3.6363e-01

---------------------- Local Time Stepping Summary ----------------------
MG level: 0 -> Min. DT: 0.0001238. Max. DT: 0.907. CFL: 2.5.
MG level: 1 -> Min. DT: 0.0001952. Max. DT: 1.386. CFL: 2.03.
MG level: 2 -> Min. DT: 0.00026. Max. DT: 1.853. CFL: 1.637.
MG level: 3 -> Min. DT: 0.0002287. Max. DT: 2.374. CFL: 1.304.
-------------------------------------------------------------------------

log10[Maximum residual]: -1.914.
Maximum residual point 340, located at (0.9999, -0.0003808).

 Iter    Time(s)   Res[Psi_Rho]     Res[Psi_E]      Sens_Geo      Sens_AoA
  240   0.182570      -3.404756      -3.517600    5.9868e+00    3.6363e-01
  241   0.182559      -3.405300      -3.518877    6.0332e+00    3.6363e-01
  242   0.182552      -3.405839      -3.520152    6.0795e+00    3.6363e-01
  243   0.182546      -3.406375      -3.521426    6.1260e+00    3.6363e-01
  244   0.182544      -3.406908      -3.522698    6.1725e+00    3.6363e-01
  245   0.182544      -3.407436      -3.523968    6.2190e+00    3.6363e-01
  246   0.182542      -3.407961      -3.525238    6.2656e+00    3.6363e-01
  247   0.182541      -3.408483      -3.526506    6.3122e+00    3.6363e-01
  248   0.182540      -3.409002      -3.527773    6.3588e+00    3.6363e-01
  249   0.182546      -3.409517      -3.529039    6.4055e+00    3.6363e-01
  250   0.182531      -3.410028      -3.530303    6.4521e+00    3.6363e-01

-------------------------- File Output Summary --------------------------
Writing comma-separated values (CSV) surface files.
Merging connectivities in the Master node.
Merging coordinates in the Master node.
Merging solution in the Master node.
Writing SU2 native restart file.
Writing Paraview ASCII volume solution file.
Writing Paraview ASCII surface solution file.
-------------------------------------------------------------------------

  251   0.182766      -3.410537      -3.531567    6.4987e+00    3.6364e-01
  252   0.182747      -3.411043      -3.532830    6.5453e+00    3.6364e-01
  253   0.182732      -3.411546      -3.534092    6.5919e+00    3.6364e-01
  254   0.182717      -3.412046      -3.535352    6.6385e+00    3.6364e-01
  255   0.182698      -3.412543      -3.536612    6.6850e+00    3.6364e-01
  256   0.182678      -3.413037      -3.537871    6.7315e+00    3.6364e-01
  257   0.182660      -3.413528      -3.539130    6.7779e+00    3.6364e-01
  258   0.182645      -3.414017      -3.540387    6.8243e+00    3.6364e-01
  259   0.182629      -3.414504      -3.541644    6.8706e+00    3.6365e-01
  260   0.182618      -3.414988      -3.542900    6.9168e+00    3.6365e-01
  261   0.182599      -3.415469      -3.544156    6.9630e+00    3.6365e-01
  262   0.182579      -3.415949      -3.545411    7.0090e+00    3.6365e-01
  263   0.182561      -3.416425      -3.546666    7.0550e+00    3.6365e-01
  264   0.182548      -3.416900      -3.547920    7.1009e+00    3.6365e-01
  265   0.182535      -3.417373      -3.549173    7.1467e+00    3.6365e-01
  266   0.182519      -3.417843      -3.550426    7.1924e+00    3.6365e-01
  267   0.182503      -3.418311      -3.551679    7.2380e+00    3.6365e-01
  268   0.182485      -3.418778      -3.552931    7.2835e+00    3.6366e-01
  269   0.182473      -3.419242      -3.554183    7.3288e+00    3.6366e-01
  270   0.182456      -3.419704      -3.555435    7.3741e+00    3.6366e-01
  271   0.182440      -3.420165      -3.556686    7.4192e+00    3.6366e-01
  272   0.182421      -3.420624      -3.557937    7.4642e+00    3.6366e-01
  273   0.182403      -3.421081      -3.559187    7.5090e+00    3.6366e-01
  274   0.182385      -3.421536      -3.560438    7.5537e+00    3.6366e-01
  275   0.182368      -3.421990      -3.561688    7.5983e+00    3.6366e-01
  276   0.182348      -3.422442      -3.562938    7.6427e+00    3.6366e-01
  277   0.182332      -3.422892      -3.564187    7.6870e+00    3.6366e-01
  278   0.182320      -3.423341      -3.565437    7.7311e+00    3.6366e-01
  279   0.182300      -3.423789      -3.566686    7.7751e+00    3.6366e-01

---------------------- Local Time Stepping Summary ----------------------
MG level: 0 -> Min. DT: 0.0001238. Max. DT: 0.907. CFL: 2.5.
MG level: 1 -> Min. DT: 0.0001952. Max. DT: 1.386. CFL: 2.03.
MG level: 2 -> Min. DT: 0.00026. Max. DT: 1.853. CFL: 1.637.
MG level: 3 -> Min. DT: 0.0002287. Max. DT: 2.374. CFL: 1.304.
-------------------------------------------------------------------------

log10[Maximum residual]: -1.914.
Maximum residual point 340, located at (0.9999, -0.0003808).

 Iter    Time(s)   Res[Psi_Rho]     Res[Psi_E]      Sens_Geo      Sens_AoA
  280   0.182281      -3.424235      -3.567935    7.8189e+00    3.6366e-01
  281   0.182262      -3.424679      -3.569184    7.8626e+00    3.6366e-01
  282   0.182243      -3.425122      -3.570433    7.9061e+00    3.6366e-01
  283   0.182220      -3.425564      -3.571682    7.9494e+00    3.6366e-01
  284   0.182202      -3.426005      -3.572931    7.9926e+00    3.6366e-01
  285   0.182179      -3.426444      -3.574179    8.0356e+00    3.6366e-01
  286   0.182162      -3.426882      -3.575428    8.0784e+00    3.6366e-01
  287   0.182142      -3.427319      -3.576676    8.1210e+00    3.6366e-01
  288   0.182124      -3.427755      -3.577924    8.1635e+00    3.6365e-01
  289   0.182110      -3.428190      -3.579172    8.2058e+00    3.6365e-01
  290   0.182088      -3.428624      -3.580420    8.2479e+00    3.6365e-01
  291   0.182068      -3.429056      -3.581668    8.2898e+00    3.6365e-01
  292   0.182051      -3.429488      -3.582916    8.3316e+00    3.6365e-01
  293   0.182037      -3.429918      -3.584163    8.3731e+00    3.6365e-01
  294   0.182016      -3.430348      -3.585411    8.4145e+00    3.6365e-01
  295   0.181995      -3.430777      -3.586659    8.4556e+00    3.6365e-01
  296   0.181974      -3.431205      -3.587906    8.4966e+00    3.6365e-01
  297   0.181958      -3.431632      -3.589154    8.5374e+00    3.6365e-01
  298   0.181940      -3.432058      -3.590401    8.5780e+00    3.6365e-01
  299   0.181922      -3.432484      -3.591648    8.6184e+00    3.6365e-01
  300   0.181902      -3.432908      -3.592895    8.6586e+00    3.6365e-01
  301   0.181883      -3.433332      -3.594142    8.6985e+00    3.6365e-01
  302   0.181869      -3.433756      -3.595389    8.7383e+00    3.6365e-01
  303   0.181856      -3.434179      -3.596636    8.7779e+00    3.6364e-01
  304   0.181842      -3.434601      -3.597883    8.8173e+00    3.6364e-01
  305   0.181829      -3.435022      -3.599129    8.8565e+00    3.6364e-01
  306   0.181816      -3.435443      -3.600376    8.8954e+00    3.6364e-01
  307   0.181801      -3.435864      -3.601622    8.9342e+00    3.6364e-01
  308   0.181786      -3.436284      -3.602869    8.9727e+00    3.6364e-01
  309   0.181777      -3.436703      -3.604115    9.0110e+00    3.6364e-01
  310   0.181767      -3.437122      -3.605361    9.0491e+00    3.6364e-01
  311   0.181754      -3.437541      -3.606607    9.0870e+00    3.6364e-01
  312   0.181743      -3.437959      -3.607852    9.1247e+00    3.6364e-01
  313   0.181731      -3.438377      -3.609098    9.1621e+00    3.6364e-01
  314   0.181721      -3.438794      -3.610344    9.1994e+00    3.6364e-01
  315   0.181711      -3.439212      -3.611589    9.2364e+00    3.6364e-01
  316   0.181701      -3.439629      -3.612834    9.2731e+00    3.6364e-01
  317   0.181690      -3.440045      -3.614079    9.3097e+00    3.6364e-01
  318   0.181681      -3.440462      -3.615324    9.3460e+00    3.6364e-01
  319   0.181673      -3.440878      -3.616569    9.3822e+00    3.6364e-01

---------------------- Local Time Stepping Summary ----------------------
MG level: 0 -> Min. DT: 0.0001238. Max. DT: 0.907. CFL: 2.5.
MG level: 1 -> Min. DT: 0.0001952. Max. DT: 1.386. CFL: 2.03.
MG level: 2 -> Min. DT: 0.00026. Max. DT: 1.853. CFL: 1.637.
MG level: 3 -> Min. DT: 0.0002287. Max. DT: 2.374. CFL: 1.304.
-------------------------------------------------------------------------

log10[Maximum residual]: -1.919.
Maximum residual point 340, located at (0.9999, -0.0003808).

 Iter    Time(s)   Res[Psi_Rho]     Res[Psi_E]      Sens_Geo      Sens_AoA
  320   0.181673      -3.441294      -3.617813    9.4180e+00    3.6364e-01
  321   0.181671      -3.441710      -3.619057    9.4537e+00    3.6364e-01
  322   0.181669      -3.442126      -3.620301    9.4891e+00    3.6364e-01
  323   0.181663      -3.442542      -3.621545    9.5243e+00    3.6364e-01
  324   0.181659      -3.442958      -3.622789    9.5593e+00    3.6364e-01
  325   0.181657      -3.443373      -3.624032    9.5940e+00    3.6364e-01
  326   0.181653      -3.443789      -3.625275    9.6285e+00    3.6364e-01
  327   0.181650      -3.444205      -3.626518    9.6627e+00    3.6364e-01
  328   0.181646      -3.444620      -3.627760    9.6967e+00    3.6364e-01
  329   0.181641      -3.445036      -3.629003    9.7305e+00    3.6364e-01
  330   0.181639      -3.445452      -3.630245    9.7640e+00    3.6364e-01
  331   0.181637      -3.445868      -3.631486    9.7973e+00    3.6364e-01
  332   0.181635      -3.446284      -3.632728    9.8304e+00    3.6364e-01
  333   0.181653      -3.446700      -3.633969    9.8632e+00    3.6364e-01
  334   0.181677      -3.447117      -3.635210    9.8958e+00    3.6364e-01
  335   0.181679      -3.447533      -3.636450    9.9281e+00    3.6364e-01
  336   0.181712      -3.447950      -3.637690    9.9602e+00    3.6364e-01
  337   0.181711      -3.448367      -3.638929    9.9920e+00    3.6364e-01
  338   0.181707      -3.448784      -3.640169    1.0024e+01    3.6364e-01
  339   0.181704      -3.449202      -3.641407    1.0055e+01    3.6364e-01
  340   0.181701      -3.449619      -3.642646    1.0086e+01    3.6364e-01
  341   0.181698      -3.450038      -3.643884    1.0117e+01    3.6364e-01
  342   0.181701      -3.450456      -3.645121    1.0147e+01    3.6364e-01
  343   0.181703      -3.450875      -3.646358    1.0178e+01    3.6364e-01
  344   0.181703      -3.451294      -3.647595    1.0208e+01    3.6364e-01
  345   0.181703      -3.451713      -3.648831    1.0238e+01    3.6363e-01
  346   0.181703      -3.452133      -3.650066    1.0267e+01    3.6363e-01
  347   0.181708      -3.452553      -3.651301    1.0297e+01    3.6363e-01
  348   0.181709      -3.452974      -3.652536    1.0326e+01    3.6363e-01
  349   0.181711      -3.453395      -3.653769    1.0355e+01    3.6363e-01
  350   0.181710      -3.453817      -3.655003    1.0383e+01    3.6363e-01
  351   0.181711      -3.454239      -3.656235    1.0412e+01    3.6363e-01
  352   0.181712      -3.454661      -3.657467    1.0440e+01    3.6363e-01
  353   0.181716      -3.455084      -3.658699    1.0467e+01    3.6363e-01
  354   0.181718      -3.455508      -3.659929    1.0495e+01    3.6363e-01
  355   0.181717      -3.455932      -3.661159    1.0522e+01    3.6363e-01
  356   0.181718      -3.456357      -3.662389    1.0549e+01    3.6363e-01
  357   0.181716      -3.456782      -3.663617    1.0576e+01    3.6363e-01
  358   0.181721      -3.457207      -3.664845    1.0603e+01    3.6363e-01
  359   0.181725      -3.457634      -3.666072    1.0629e+01    3.6363e-01

---------------------- Local Time Stepping Summary ----------------------
MG level: 0 -> Min. DT: 0.0001238. Max. DT: 0.907. CFL: 2.5.
MG level: 1 -> Min. DT: 0.0001952. Max. DT: 1.386. CFL: 2.03.
MG level: 2 -> Min. DT: 0.00026. Max. DT: 1.853. CFL: 1.637.
MG level: 3 -> Min. DT: 0.0002287. Max. DT: 2.374. CFL: 1.304.
-------------------------------------------------------------------------

log10[Maximum residual]: -1.928.
Maximum residual point 340, located at (0.9999, -0.0003808).

 Iter    Time(s)   Res[Psi_Rho]     Res[Psi_E]      Sens_Geo      Sens_AoA
  360   0.181724      -3.458061      -3.667298    1.0655e+01    3.6363e-01
  361   0.181724      -3.458488      -3.668524    1.0681e+01    3.6363e-01
  362   0.181723      -3.458916      -3.669748    1.0706e+01    3.6363e-01
  363   0.181726      -3.459345      -3.670972    1.0732e+01    3.6363e-01
  364   0.181727      -3.459774      -3.672195    1.0757e+01    3.6363e-01
  365   0.181727      -3.460204      -3.673417    1.0781e+01    3.6363e-01
  366   0.181730      -3.460635      -3.674638    1.0806e+01    3.6363e-01
  367   0.181730      -3.461066      -3.675858    1.0830e+01    3.6363e-01
  368   0.181729      -3.461498      -3.677077    1.0854e+01    3.6363e-01
  369   0.181733      -3.461931      -3.678295    1.0878e+01    3.6363e-01
  370   0.181736      -3.462364      -3.679512    1.0901e+01    3.6363e-01
  371   0.181735      -3.462798      -3.680728    1.0924e+01    3.6363e-01
  372   0.181735      -3.463233      -3.681943    1.0947e+01    3.6363e-01
  373   0.181735      -3.463668      -3.683157    1.0970e+01    3.6363e-01
  374   0.181738      -3.464104      -3.684370    1.0992e+01    3.6363e-01
  375   0.181739      -3.464541      -3.685582    1.1015e+01    3.6363e-01
  376   0.181741      -3.464979      -3.686792    1.1036e+01    3.6363e-01
  377   0.181740      -3.465417      -3.688001    1.1058e+01    3.6363e-01
  378   0.181741      -3.465856      -3.689209    1.1080e+01    3.6363e-01
  379   0.181740      -3.466296      -3.690416    1.1101e+01    3.6363e-01
  380   0.181742      -3.466737      -3.691622    1.1122e+01    3.6363e-01
  381   0.181744      -3.467178      -3.692826    1.1142e+01    3.6363e-01
  382   0.181743      -3.467620      -3.694029    1.1163e+01    3.6363e-01
  383   0.181743      -3.468063      -3.695230    1.1183e+01    3.6363e-01
  384   0.181742      -3.468507      -3.696431    1.1203e+01    3.6363e-01
  385   0.181742      -3.468951      -3.697629    1.1222e+01    3.6363e-01
  386   0.181743      -3.469397      -3.698827    1.1241e+01    3.6363e-01
  387   0.181743      -3.469843      -3.700023    1.1261e+01    3.6363e-01
  388   0.181743      -3.470290      -3.701217    1.1279e+01    3.6363e-01
  389   0.181743      -3.470737      -3.702410    1.1298e+01    3.6363e-01
  390   0.181741      -3.471186      -3.703601    1.1316e+01    3.6363e-01
  391   0.181746      -3.471635      -3.704791    1.1334e+01    3.6363e-01
  392   0.181747      -3.472085      -3.705979    1.1352e+01    3.6363e-01
  393   0.181747      -3.472536      -3.707166    1.1370e+01    3.6363e-01
  394   0.181745      -3.472988      -3.708351    1.1387e+01    3.6363e-01
  395   0.181744      -3.473441      -3.709534    1.1404e+01    3.6363e-01
  396   0.181747      -3.473894      -3.710716    1.1421e+01    3.6362e-01
  397   0.181748      -3.474348      -3.711896    1.1437e+01    3.6362e-01
  398   0.181750      -3.474803      -3.713074    1.1454e+01    3.6362e-01
  399   0.181750      -3.475259      -3.714251    1.1470e+01    3.6362e-01

---------------------- Local Time Stepping Summary ----------------------
MG level: 0 -> Min. DT: 0.0001238. Max. DT: 0.907. CFL: 2.5.
MG level: 1 -> Min. DT: 0.0001952. Max. DT: 1.386. CFL: 2.03.
MG level: 2 -> Min. DT: 0.00026. Max. DT: 1.853. CFL: 1.637.
MG level: 3 -> Min. DT: 0.0002287. Max. DT: 2.374. CFL: 1.304.
-------------------------------------------------------------------------

log10[Maximum residual]: -1.939.
Maximum residual point 340, located at (0.9999, -0.0003808).

 Iter    Time(s)   Res[Psi_Rho]     Res[Psi_E]      Sens_Geo      Sens_AoA
  400   0.181748      -3.475716      -3.715425    1.1486e+01    3.6362e-01
  401   0.181748      -3.476174      -3.716598    1.1501e+01    3.6362e-01
  402   0.181748      -3.476632      -3.717769    1.1516e+01    3.6362e-01
  403   0.181749      -3.477091      -3.718938    1.1531e+01    3.6362e-01
  404   0.181749      -3.477551      -3.720105    1.1546e+01    3.6362e-01
  405   0.181748      -3.478012      -3.721270    1.1561e+01    3.6362e-01
  406   0.181747      -3.478474      -3.722434    1.1575e+01    3.6362e-01
  407   0.181749      -3.478937      -3.723595    1.1589e+01    3.6362e-01
  408   0.181749      -3.479400      -3.724754    1.1603e+01    3.6362e-01
  409   0.181751      -3.479865      -3.725911    1.1616e+01    3.6362e-01
  410   0.181751      -3.480330      -3.727067    1.1630e+01    3.6362e-01
  411   0.181752      -3.480796      -3.728220    1.1643e+01    3.6362e-01
  412   0.181751      -3.481263      -3.729371    1.1656e+01    3.6362e-01
  413   0.181754      -3.481731      -3.730520    1.1668e+01    3.6362e-01
  414   0.181758      -3.482199      -3.731666    1.1680e+01    3.6362e-01
  415   0.181758      -3.482669      -3.732811    1.1692e+01    3.6362e-01
  416   0.181758      -3.483139      -3.733953    1.1704e+01    3.6362e-01
  417   0.181757      -3.483610      -3.735093    1.1716e+01    3.6362e-01
  418   0.181760      -3.484082      -3.736231    1.1727e+01    3.6362e-01
  419   0.181762      -3.484555      -3.737367    1.1738e+01    3.6362e-01
  420   0.181760      -3.485029      -3.738500    1.1749e+01    3.6362e-01
  421   0.181760      -3.485503      -3.739631    1.1760e+01    3.6362e-01
  422   0.181759      -3.485979      -3.740759    1.1770e+01    3.6362e-01
  423   0.181762      -3.486455      -3.741886    1.1780e+01    3.6362e-01
  424   0.181764      -3.486932      -3.743009    1.1790e+01    3.6362e-01
  425   0.181765      -3.487410      -3.744131    1.1800e+01    3.6362e-01
  426   0.181765      -3.487889      -3.745250    1.1809e+01    3.6362e-01
  427   0.181765      -3.488368      -3.746366    1.1818e+01    3.6362e-01
  428   0.181763      -3.488849      -3.747480    1.1827e+01    3.6361e-01
  429   0.181766      -3.489330      -3.748592    1.1836e+01    3.6361e-01
  430   0.181767      -3.489812      -3.749701    1.1844e+01    3.6361e-01
  431   0.181766      -3.490295      -3.750807    1.1852e+01    3.6361e-01
  432   0.181766      -3.490779      -3.751911    1.1860e+01    3.6361e-01
  433   0.181766      -3.491263      -3.753012    1.1868e+01    3.6361e-01
  434   0.181767      -3.491749      -3.754110    1.1875e+01    3.6361e-01
  435   0.181768      -3.492235      -3.755206    1.1883e+01    3.6361e-01
  436   0.181769      -3.492722      -3.756300    1.1890e+01    3.6361e-01
  437   0.181769      -3.493210      -3.757390    1.1896e+01    3.6361e-01
  438   0.181769      -3.493698      -3.758478    1.1903e+01    3.6361e-01
  439   0.181768      -3.494188      -3.759563    1.1909e+01    3.6361e-01

---------------------- Local Time Stepping Summary ----------------------
MG level: 0 -> Min. DT: 0.0001238. Max. DT: 0.907. CFL: 2.5.
MG level: 1 -> Min. DT: 0.0001952. Max. DT: 1.386. CFL: 2.03.
MG level: 2 -> Min. DT: 0.00026. Max. DT: 1.853. CFL: 1.637.
MG level: 3 -> Min. DT: 0.0002287. Max. DT: 2.374. CFL: 1.304.
-------------------------------------------------------------------------

log10[Maximum residual]: -1.953.
Maximum residual point 340, located at (0.9999, -0.0003808).

 Iter    Time(s)   Res[Psi_Rho]     Res[Psi_E]      Sens_Geo      Sens_AoA
  440   0.181769      -3.494678      -3.760646    1.1915e+01    3.6361e-01
  441   0.181774      -3.495169      -3.761726    1.1921e+01    3.6361e-01
  442   0.181773      -3.495661      -3.762802    1.1927e+01    3.6361e-01
  443   0.181774      -3.496153      -3.763877    1.1932e+01    3.6361e-01
  444   0.181774      -3.496647      -3.764948    1.1937e+01    3.6361e-01
  445   0.181774      -3.497141      -3.766016    1.1942e+01    3.6361e-01
  446   0.181774      -3.497636      -3.767082    1.1947e+01    3.6361e-01
  447   0.181774      -3.498132      -3.768145    1.1951e+01    3.6361e-01
  448   0.181775      -3.498628      -3.769205    1.1956e+01    3.6361e-01
  449   0.181775      -3.499126      -3.770262    1.1960e+01    3.6361e-01
  450   0.181774      -3.499624      -3.771316    1.1963e+01    3.6361e-01
  451   0.181777      -3.500123      -3.772367    1.1967e+01    3.6361e-01
  452   0.181778      -3.500622      -3.773415    1.1970e+01    3.6361e-01
  453   0.181778      -3.501122      -3.774460    1.1973e+01    3.6361e-01
  454   0.181778      -3.501624      -3.775503    1.1976e+01    3.6360e-01
  455   0.181777      -3.502125      -3.776542    1.1979e+01    3.6360e-01
  456   0.181781      -3.502628      -3.777578    1.1981e+01    3.6360e-01
  457   0.181780      -3.503131      -3.778612    1.1984e+01    3.6360e-01
  458   0.181782      -3.503635      -3.779642    1.1986e+01    3.6360e-01
  459   0.181783      -3.504140      -3.780669    1.1987e+01    3.6360e-01
  460   0.181781      -3.504646      -3.781694    1.1989e+01    3.6360e-01
  461   0.181780      -3.505152      -3.782715    1.1990e+01    3.6360e-01
  462   0.181782      -3.505659      -3.783733    1.1991e+01    3.6360e-01
  463   0.181783      -3.506166      -3.784748    1.1992e+01    3.6360e-01
  464   0.181782      -3.506675      -3.785760    1.1993e+01    3.6360e-01
  465   0.181783      -3.507184      -3.786769    1.1994e+01    3.6360e-01
  466   0.181782      -3.507693      -3.787774    1.1994e+01    3.6360e-01
  467   0.181781      -3.508204      -3.788777    1.1994e+01    3.6360e-01
  468   0.181782      -3.508715      -3.789777    1.1994e+01    3.6360e-01
  469   0.181783      -3.509227      -3.790773    1.1993e+01    3.6360e-01
  470   0.181782      -3.509739      -3.791766    1.1993e+01    3.6360e-01
  471   0.181781      -3.510252      -3.792756    1.1992e+01    3.6360e-01
  472   0.181779      -3.510766      -3.793743    1.1991e+01    3.6360e-01
  473   0.181779      -3.511280      -3.794727    1.1990e+01    3.6360e-01
  474   0.181781      -3.511795      -3.795708    1.1988e+01    3.6360e-01
  475   0.181781      -3.512311      -3.796685    1.1987e+01    3.6359e-01
  476   0.181780      -3.512827      -3.797660    1.1985e+01    3.6359e-01
  477   0.181779      -3.513344      -3.798631    1.1983e+01    3.6359e-01
  478   0.181781      -3.513862      -3.799599    1.1981e+01    3.6359e-01
  479   0.181783      -3.514380      -3.800564    1.1978e+01    3.6359e-01

---------------------- Local Time Stepping Summary ----------------------
MG level: 0 -> Min. DT: 0.0001238. Max. DT: 0.907. CFL: 2.5.
MG level: 1 -> Min. DT: 0.0001952. Max. DT: 1.386. CFL: 2.03.
MG level: 2 -> Min. DT: 0.00026. Max. DT: 1.853. CFL: 1.637.
MG level: 3 -> Min. DT: 0.0002287. Max. DT: 2.374. CFL: 1.304.
-------------------------------------------------------------------------

log10[Maximum residual]: -1.968.
Maximum residual point 340, located at (0.9999, -0.0003808).

 Iter    Time(s)   Res[Psi_Rho]     Res[Psi_E]      Sens_Geo      Sens_AoA
  480   0.181782      -3.514899      -3.801525    1.1976e+01    3.6359e-01
  481   0.181782      -3.515418      -3.802484    1.1973e+01    3.6359e-01
  482   0.181781      -3.515939      -3.803439    1.1970e+01    3.6359e-01
  483   0.181781      -3.516459      -3.804391    1.1967e+01    3.6359e-01
  484   0.181785      -3.516980      -3.805340    1.1963e+01    3.6359e-01
  485   0.181787      -3.517502      -3.806285    1.1960e+01    3.6359e-01
  486   0.181786      -3.518025      -3.807228    1.1956e+01    3.6359e-01
  487   0.181786      -3.518548      -3.808167    1.1952e+01    3.6359e-01
  488   0.181786      -3.519071      -3.809103    1.1947e+01    3.6359e-01
  489   0.181788      -3.519596      -3.810036    1.1943e+01    3.6359e-01
  490   0.181790      -3.520120      -3.810966    1.1938e+01    3.6359e-01
  491   0.181788      -3.520646      -3.811893    1.1934e+01    3.6359e-01
  492   0.181789      -3.521172      -3.812816    1.1929e+01    3.6359e-01
  493   0.181789      -3.521698      -3.813736    1.1924e+01    3.6359e-01
  494   0.181791      -3.522225      -3.814653    1.1918e+01    3.6359e-01
  495   0.181790      -3.522752      -3.815567    1.1913e+01    3.6358e-01
  496   0.181790      -3.523280      -3.816478    1.1907e+01    3.6358e-01
  497   0.181790      -3.523809      -3.817386    1.1901e+01    3.6358e-01
  498   0.181789      -3.524338      -3.818290    1.1895e+01    3.6358e-01
  499   0.181796      -3.524867      -3.819191    1.1889e+01    3.6358e-01
  500   0.181807      -3.525398      -3.820090    1.1882e+01    3.6358e-01

-------------------------- File Output Summary --------------------------
Writing comma-separated values (CSV) surface files.
Merging connectivities in the Master node.
Merging coordinates in the Master node.
Merging solution in the Master node.
Writing SU2 native restart file.
Writing Paraview ASCII volume solution file.
Writing Paraview ASCII surface solution file.
-------------------------------------------------------------------------

  501   0.181951      -3.525928      -3.820985    1.1875e+01    3.6358e-01
  502   0.181963      -3.526459      -3.821877    1.1869e+01    3.6358e-01
  503   0.181976      -3.526991      -3.822765    1.1861e+01    3.6358e-01
  504   0.181988      -3.527523      -3.823651    1.1854e+01    3.6358e-01
  505   0.182002      -3.528055      -3.824534    1.1847e+01    3.6358e-01
  506   0.182014      -3.528588      -3.825413    1.1839e+01    3.6358e-01
  507   0.182025      -3.529122      -3.826290    1.1832e+01    3.6358e-01
  508   0.182036      -3.529656      -3.827163    1.1824e+01    3.6358e-01
  509   0.182047      -3.530190      -3.828033    1.1816e+01    3.6358e-01
  510   0.182057      -3.530725      -3.828901    1.1807e+01    3.6358e-01
  511   0.182069      -3.531260      -3.829765    1.1799e+01    3.6358e-01
  512   0.182080      -3.531796      -3.830626    1.1790e+01    3.6358e-01
  513   0.182090      -3.532332      -3.831484    1.1781e+01    3.6358e-01
  514   0.182100      -3.532869      -3.832339    1.1772e+01    3.6357e-01
  515   0.182112      -3.533406      -3.833192    1.1763e+01    3.6357e-01
  516   0.182121      -3.533943      -3.834041    1.1754e+01    3.6357e-01
  517   0.182132      -3.534481      -3.834887    1.1745e+01    3.6357e-01
  518   0.182143      -3.535019      -3.835731    1.1735e+01    3.6357e-01
  519   0.182153      -3.535558      -3.836571    1.1725e+01    3.6357e-01

---------------------- Local Time Stepping Summary ----------------------
MG level: 0 -> Min. DT: 0.0001238. Max. DT: 0.907. CFL: 2.5.
MG level: 1 -> Min. DT: 0.0001952. Max. DT: 1.386. CFL: 2.03.
MG level: 2 -> Min. DT: 0.00026. Max. DT: 1.853. CFL: 1.637.
MG level: 3 -> Min. DT: 0.0002287. Max. DT: 2.374. CFL: 1.304.
-------------------------------------------------------------------------

log10[Maximum residual]: -1.984.
Maximum residual point 340, located at (0.9999, -0.0003808).

 Iter    Time(s)   Res[Psi_Rho]     Res[Psi_E]      Sens_Geo      Sens_AoA
  520   0.182164      -3.536097      -3.837408    1.1715e+01    3.6357e-01
  521   0.182175      -3.536636      -3.838243    1.1705e+01    3.6357e-01
  522   0.182187      -3.537176      -3.839075    1.1695e+01    3.6357e-01
  523   0.182197      -3.537716      -3.839904    1.1684e+01    3.6357e-01
  524   0.182205      -3.538257      -3.840730    1.1674e+01    3.6357e-01
  525   0.182215      -3.538798      -3.841553    1.1663e+01    3.6357e-01
  526   0.182227      -3.539339      -3.842373    1.1652e+01    3.6357e-01
  527   0.182235      -3.539880      -3.843191    1.1641e+01    3.6357e-01
  528   0.182244      -3.540422      -3.844005    1.1629e+01    3.6357e-01
  529   0.182255      -3.540965      -3.844817    1.1618e+01    3.6357e-01
  530   0.182263      -3.541508      -3.845627    1.1606e+01    3.6357e-01
  531   0.182276      -3.542051      -3.846433    1.1595e+01    3.6357e-01
  532   0.182289      -3.542594      -3.847237    1.1583e+01    3.6356e-01
  533   0.182301      -3.543138      -3.848038    1.1571e+01    3.6356e-01
  534   0.182313      -3.543682      -3.848837    1.1559e+01    3.6356e-01
  535   0.182325      -3.544226      -3.849632    1.1546e+01    3.6356e-01
  536   0.182338      -3.544770      -3.850426    1.1534e+01    3.6356e-01
  537   0.182351      -3.545315      -3.851216    1.1521e+01    3.6356e-01
  538   0.182363      -3.545861      -3.852004    1.1508e+01    3.6356e-01
  539   0.182374      -3.546406      -3.852790    1.1495e+01    3.6356e-01
  540   0.182387      -3.546952      -3.853572    1.1482e+01    3.6356e-01
  541   0.182399      -3.547498      -3.854353    1.1469e+01    3.6356e-01
  542   0.182412      -3.548044      -3.855131    1.1456e+01    3.6356e-01
  543   0.182424      -3.548591      -3.855906    1.1442e+01    3.6356e-01
  544   0.182436      -3.549138      -3.856679    1.1429e+01    3.6356e-01
  545   0.182447      -3.549685      -3.857449    1.1415e+01    3.6356e-01
  546   0.182458      -3.550233      -3.858217    1.1401e+01    3.6356e-01
  547   0.182470      -3.550780      -3.858983    1.1387e+01    3.6356e-01
  548   0.182483      -3.551328      -3.859746    1.1372e+01    3.6356e-01
  549   0.182493      -3.551876      -3.860507    1.1358e+01    3.6355e-01
  550   0.182504      -3.552425      -3.861266    1.1344e+01    3.6355e-01
  551   0.182515      -3.552973      -3.862022    1.1329e+01    3.6355e-01
  552   0.182526      -3.553522      -3.862776    1.1314e+01    3.6355e-01
  553   0.182537      -3.554072      -3.863528    1.1299e+01    3.6355e-01
  554   0.182538      -3.554621      -3.864277    1.1284e+01    3.6355e-01
  555   0.182536      -3.555170      -3.865025    1.1269e+01    3.6355e-01
  556   0.182534      -3.555720      -3.865770    1.1254e+01    3.6355e-01
  557   0.182533      -3.556270      -3.866513    1.1238e+01    3.6355e-01
  558   0.182534      -3.556820      -3.867254    1.1223e+01    3.6355e-01
  559   0.182534      -3.557371      -3.867993    1.1207e+01    3.6355e-01

---------------------- Local Time Stepping Summary ----------------------
MG level: 0 -> Min. DT: 0.0001238. Max. DT: 0.907. CFL: 2.5.
MG level: 1 -> Min. DT: 0.0001952. Max. DT: 1.386. CFL: 2.03.
MG level: 2 -> Min. DT: 0.00026. Max. DT: 1.853. CFL: 1.637.
MG level: 3 -> Min. DT: 0.0002287. Max. DT: 2.374. CFL: 1.304.
-------------------------------------------------------------------------

log10[Maximum residual]: -2.001.
Maximum residual point 340, located at (0.9999, -0.0003808).

 Iter    Time(s)   Res[Psi_Rho]     Res[Psi_E]      Sens_Geo      Sens_AoA
  560   0.182532      -3.557921      -3.868730    1.1191e+01    3.6355e-01
  561   0.182530      -3.558472      -3.869464    1.1175e+01    3.6355e-01
  562   0.182527      -3.559023      -3.870197    1.1159e+01    3.6355e-01
  563   0.182526      -3.559574      -3.870927    1.1143e+01    3.6355e-01
  564   0.182524      -3.560126      -3.871656    1.1127e+01    3.6355e-01
  565   0.182524      -3.560677      -3.872383    1.1110e+01    3.6355e-01
  566   0.182521      -3.561229      -3.873108    1.1094e+01    3.6354e-01
  567   0.182519      -3.561781      -3.873831    1.1077e+01    3.6354e-01
  568   0.182518      -3.562333      -3.874552    1.1060e+01    3.6354e-01
  569   0.182517      -3.562885      -3.875271    1.1044e+01    3.6354e-01
  570   0.182517      -3.563437      -3.875988    1.1026e+01    3.6354e-01
  571   0.182515      -3.563989      -3.876704    1.1009e+01    3.6354e-01
  572   0.182512      -3.564542      -3.877418    1.0992e+01    3.6354e-01
  573   0.182510      -3.565095      -3.878130    1.0975e+01    3.6354e-01
  574   0.182509      -3.565648      -3.878840    1.0957e+01    3.6354e-01
  575   0.182508      -3.566201      -3.879549    1.0940e+01    3.6354e-01
  576   0.182509      -3.566754      -3.880256    1.0922e+01    3.6354e-01
  577   0.182513      -3.567307      -3.880961    1.0904e+01    3.6354e-01
  578   0.182516      -3.567861      -3.881665    1.0886e+01    3.6354e-01
  579   0.182516      -3.568414      -3.882367    1.0868e+01    3.6354e-01
  580   0.182526      -3.568968      -3.883068    1.0850e+01    3.6354e-01
  581   0.182532      -3.569521      -3.883767    1.0832e+01    3.6354e-01
  582   0.182533      -3.570075      -3.884465    1.0813e+01    3.6354e-01
  583   0.182533      -3.570629      -3.885161    1.0795e+01    3.6353e-01
  584   0.182532      -3.571183      -3.885856    1.0776e+01    3.6353e-01
  585   0.182536      -3.571737      -3.886549    1.0758e+01    3.6353e-01
  586   0.182540      -3.572292      -3.887241    1.0739e+01    3.6353e-01
  587   0.182538      -3.572846      -3.887932    1.0720e+01    3.6353e-01
  588   0.182538      -3.573400      -3.888621    1.0701e+01    3.6353e-01
  589   0.182536      -3.573955      -3.889309    1.0682e+01    3.6353e-01
  590   0.182536      -3.574510      -3.889996    1.0663e+01    3.6353e-01
  591   0.182536      -3.575064      -3.890681    1.0644e+01    3.6353e-01
  592   0.182534      -3.575619      -3.891365    1.0624e+01    3.6353e-01
  593   0.182532      -3.576174      -3.892048    1.0605e+01    3.6353e-01
  594   0.182531      -3.576729      -3.892730    1.0585e+01    3.6353e-01
  595   0.182529      -3.577284      -3.893411    1.0565e+01    3.6353e-01
  596   0.182531      -3.577839      -3.894091    1.0546e+01    3.6353e-01
  597   0.182531      -3.578394      -3.894769    1.0526e+01    3.6353e-01
  598   0.182528      -3.578949      -3.895447    1.0506e+01    3.6353e-01
  599   0.182527      -3.579504      -3.896123    1.0486e+01    3.6352e-01

---------------------- Local Time Stepping Summary ----------------------
MG level: 0 -> Min. DT: 0.0001238. Max. DT: 0.907. CFL: 2.5.
MG level: 1 -> Min. DT: 0.0001952. Max. DT: 1.386. CFL: 2.03.
MG level: 2 -> Min. DT: 0.00026. Max. DT: 1.853. CFL: 1.637.
MG level: 3 -> Min. DT: 0.0002287. Max. DT: 2.374. CFL: 1.304.
-------------------------------------------------------------------------

log10[Maximum residual]: -2.019.
Maximum residual point 340, located at (0.9999, -0.0003808).

 Iter    Time(s)   Res[Psi_Rho]     Res[Psi_E]      Sens_Geo      Sens_AoA
  600   0.182526      -3.580059      -3.896798    1.0466e+01    3.6352e-01
  601   0.182527      -3.580615      -3.897473    1.0446e+01    3.6352e-01
  602   0.182525      -3.581170      -3.898146    1.0425e+01    3.6352e-01
  603   0.182524      -3.581725      -3.898819    1.0405e+01    3.6352e-01
  604   0.182525      -3.582281      -3.899490    1.0385e+01    3.6352e-01
  605   0.182523      -3.582836      -3.900161    1.0364e+01    3.6352e-01
  606   0.182521      -3.583392      -3.900831    1.0343e+01    3.6352e-01
  607   0.182522      -3.583947      -3.901500    1.0323e+01    3.6352e-01
  608   0.182527      -3.584503      -3.902168    1.0302e+01    3.6352e-01
  609   0.182527      -3.585058      -3.902836    1.0281e+01    3.6352e-01
  610   0.182529      -3.585614      -3.903503    1.0260e+01    3.6352e-01
  611   0.182532      -3.586170      -3.904169    1.0239e+01    3.6352e-01
  612   0.182537      -3.586725      -3.904834    1.0218e+01    3.6352e-01
  613   0.182539      -3.587281      -3.905499    1.0197e+01    3.6352e-01
  614   0.182540      -3.587837      -3.906163    1.0176e+01    3.6352e-01
  615   0.182538      -3.588392      -3.906826    1.0154e+01    3.6351e-01
  616   0.182537      -3.588948      -3.907489    1.0133e+01    3.6351e-01
  617   0.182535      -3.589504      -3.908152    1.0111e+01    3.6351e-01
  618   0.182537      -3.590059      -3.908813    1.0090e+01    3.6351e-01
  619   0.182536      -3.590615      -3.909475    1.0068e+01    3.6351e-01
  620   0.182534      -3.591171      -3.910135    1.0047e+01    3.6351e-01
  621   0.182535      -3.591727      -3.910796    1.0025e+01    3.6351e-01
  622   0.182533      -3.592282      -3.911455    1.0003e+01    3.6351e-01
  623   0.182534      -3.592838      -3.912115    9.9811e+00    3.6351e-01
  624   0.182533      -3.593394      -3.912774    9.9592e+00    3.6351e-01
  625   0.182532      -3.593949      -3.913433    9.9371e+00    3.6351e-01
  626   0.182532      -3.594505      -3.914091    9.9151e+00    3.6351e-01
  627   0.182531      -3.595061      -3.914749    9.8929e+00    3.6351e-01
  628   0.182532      -3.595616      -3.915407    9.8707e+00    3.6351e-01
  629   0.182531      -3.596172      -3.916064    9.8484e+00    3.6351e-01
  630   0.182530      -3.596728      -3.916721    9.8261e+00    3.6351e-01
  631   0.182528      -3.597283      -3.917378    9.8037e+00    3.6350e-01
  632   0.182527      -3.597839      -3.918035    9.7812e+00    3.6350e-01
  633   0.182526      -3.598395      -3.918692    9.7587e+00    3.6350e-01
  634   0.182526      -3.598950      -3.919348    9.7361e+00    3.6350e-01
  635   0.182526      -3.599506      -3.920005    9.7135e+00    3.6350e-01
  636   0.182525      -3.600061      -3.920661    9.6908e+00    3.6350e-01
  637   0.182523      -3.600617      -3.921317    9.6680e+00    3.6350e-01
  638   0.182521      -3.601172      -3.921973    9.6452e+00    3.6350e-01
  639   0.182521      -3.601728      -3.922629    9.6224e+00    3.6350e-01

---------------------- Local Time Stepping Summary ----------------------
MG level: 0 -> Min. DT: 0.0001238. Max. DT: 0.907. CFL: 2.5.
MG level: 1 -> Min. DT: 0.0001952. Max. DT: 1.386. CFL: 2.03.
MG level: 2 -> Min. DT: 0.00026. Max. DT: 1.853. CFL: 1.637.
MG level: 3 -> Min. DT: 0.0002287. Max. DT: 2.374. CFL: 1.304.
-------------------------------------------------------------------------

log10[Maximum residual]: -2.037.
Maximum residual point 340, located at (0.9999, -0.0003808).

 Iter    Time(s)   Res[Psi_Rho]     Res[Psi_E]      Sens_Geo      Sens_AoA
  640   0.182521      -3.602283      -3.923285    9.5995e+00    3.6350e-01
  641   0.182521      -3.602838      -3.923941    9.5765e+00    3.6350e-01
  642   0.182519      -3.603394      -3.924597    9.5535e+00    3.6350e-01
  643   0.182518      -3.603949      -3.925253    9.5304e+00    3.6350e-01
  644   0.182516      -3.604504      -3.925909    9.5073e+00    3.6350e-01
  645   0.182515      -3.605059      -3.926566    9.4842e+00    3.6350e-01
  646   0.182515      -3.605615      -3.927222    9.4609e+00    3.6350e-01
  647   0.182514      -3.606170      -3.927878    9.4377e+00    3.6349e-01
  648   0.182512      -3.606725      -3.928535    9.4144e+00    3.6349e-01
  649   0.182510      -3.607280      -3.929192    9.3910e+00    3.6349e-01
  650   0.182509      -3.607835      -3.929849    9.3677e+00    3.6349e-01
  651   0.182509      -3.608390      -3.930506    9.3442e+00    3.6349e-01
  652   0.182508      -3.608945      -3.931164    9.3207e+00    3.6349e-01
  653   0.182507      -3.609500      -3.931822    9.2972e+00    3.6349e-01
  654   0.182505      -3.610055      -3.932480    9.2737e+00    3.6349e-01
  655   0.182503      -3.610609      -3.933138    9.2501e+00    3.6349e-01
  656   0.182503      -3.611164      -3.933796    9.2264e+00    3.6349e-01
  657   0.182502      -3.611719      -3.934455    9.2027e+00    3.6349e-01
  658   0.182500      -3.612273      -3.935115    9.1790e+00    3.6349e-01
  659   0.182509      -3.612828      -3.935775    9.1553e+00    3.6349e-01
  660   0.182509      -3.613383      -3.936435    9.1315e+00    3.6349e-01
  661   0.182510      -3.613937      -3.937095    9.1076e+00    3.6349e-01
  662   0.182509      -3.614491      -3.937756    9.0838e+00    3.6349e-01
  663   0.182508      -3.615046      -3.938417    9.0599e+00    3.6348e-01
  664   0.182506      -3.615600      -3.939079    9.0359e+00    3.6348e-01
  665   0.182505      -3.616154      -3.939742    9.0120e+00    3.6348e-01
  666   0.182504      -3.616709      -3.940405    8.9880e+00    3.6348e-01
  667   0.182507      -3.617263      -3.941068    8.9640e+00    3.6348e-01
  668   0.182507      -3.617817      -3.941732    8.9399e+00    3.6348e-01
  669   0.182505      -3.618371      -3.942396    8.9158e+00    3.6348e-01
  670   0.182504      -3.618925      -3.943061    8.8917e+00    3.6348e-01
  671   0.182503      -3.619479      -3.943727    8.8676e+00    3.6348e-01
  672   0.182503      -3.620033      -3.944393    8.8434e+00    3.6348e-01
  673   0.182504      -3.620586      -3.945060    8.8192e+00    3.6348e-01
  674   0.182502      -3.621140      -3.945728    8.7950e+00    3.6348e-01
  675   0.182501      -3.621694      -3.946396    8.7707e+00    3.6348e-01
  676   0.182499      -3.622247      -3.947065    8.7465e+00    3.6348e-01
  677   0.182498      -3.622801      -3.947734    8.7222e+00    3.6348e-01
  678   0.182498      -3.623354      -3.948405    8.6979e+00    3.6348e-01
  679   0.182498      -3.623908      -3.949076    8.6735e+00    3.6347e-01

---------------------- Local Time Stepping Summary ----------------------
MG level: 0 -> Min. DT: 0.0001238. Max. DT: 0.907. CFL: 2.5.
MG level: 1 -> Min. DT: 0.0001952. Max. DT: 1.386. CFL: 2.03.
MG level: 2 -> Min. DT: 0.00026. Max. DT: 1.853. CFL: 1.637.
MG level: 3 -> Min. DT: 0.0002287. Max. DT: 2.374. CFL: 1.304.
-------------------------------------------------------------------------

log10[Maximum residual]: -2.056.
Maximum residual point 340, located at (0.9999, -0.0003808).

 Iter    Time(s)   Res[Psi_Rho]     Res[Psi_E]      Sens_Geo      Sens_AoA
  680   0.182497      -3.624461      -3.949747    8.6492e+00    3.6347e-01
  681   0.182496      -3.625014      -3.950420    8.6248e+00    3.6347e-01
  682   0.182495      -3.625568      -3.951093    8.6004e+00    3.6347e-01
  683   0.182496      -3.626121      -3.951767    8.5760e+00    3.6347e-01
  684   0.182495      -3.626674      -3.952442    8.5515e+00    3.6347e-01
  685   0.182495      -3.627227      -3.953118    8.5271e+00    3.6347e-01
  686   0.182493      -3.627780      -3.953794    8.5026e+00    3.6347e-01
  687   0.182492      -3.628333      -3.954471    8.4781e+00    3.6347e-01
  688   0.182492      -3.628886      -3.955150    8.4536e+00    3.6347e-01
  689   0.182491      -3.629439      -3.955829    8.4291e+00    3.6347e-01
  690   0.182491      -3.629991      -3.956509    8.4046e+00    3.6347e-01
  691   0.182489      -3.630544      -3.957189    8.3801e+00    3.6347e-01
  692   0.182487      -3.631097      -3.957871    8.3555e+00    3.6347e-01
  693   0.182487      -3.631649      -3.958554    8.3309e+00    3.6347e-01
  694   0.182487      -3.632202      -3.959237    8.3064e+00    3.6347e-01
  695   0.182488      -3.632754      -3.959922    8.2818e+00    3.6346e-01
  696   0.182487      -3.633306      -3.960607    8.2572e+00    3.6346e-01
  697   0.182485      -3.633859      -3.961294    8.2326e+00    3.6346e-01
  698   0.182484      -3.634411      -3.961982    8.2080e+00    3.6346e-01
  699   0.182483      -3.634963      -3.962670    8.1834e+00    3.6346e-01
  700   0.182483      -3.635515      -3.963360    8.1587e+00    3.6346e-01
  701   0.182483      -3.636067      -3.964050    8.1341e+00    3.6346e-01
  702   0.182482      -3.636619      -3.964742    8.1095e+00    3.6346e-01
  703   0.182481      -3.637171      -3.965434    8.0848e+00    3.6346e-01
  704   0.182480      -3.637723      -3.966128    8.0602e+00    3.6346e-01
  705   0.182480      -3.638275      -3.966823    8.0355e+00    3.6346e-01
  706   0.182479      -3.638826      -3.967519    8.0109e+00    3.6346e-01
  707   0.182479      -3.639378      -3.968216    7.9862e+00    3.6346e-01
  708   0.182478      -3.639930      -3.968914    7.9616e+00    3.6346e-01
  709   0.182477      -3.640481      -3.969613    7.9369e+00    3.6346e-01
  710   0.182477      -3.641033      -3.970313    7.9123e+00    3.6346e-01
  711   0.182476      -3.641584      -3.971015    7.8876e+00    3.6345e-01
  712   0.182475      -3.642135      -3.971718    7.8630e+00    3.6345e-01
  713   0.182474      -3.642687      -3.972421    7.8383e+00    3.6345e-01
  714   0.182472      -3.643238      -3.973126    7.8137e+00    3.6345e-01
  715   0.182470      -3.643789      -3.973833    7.7890e+00    3.6345e-01
  716   0.182471      -3.644340      -3.974540    7.7644e+00    3.6345e-01
  717   0.182470      -3.644891      -3.975249    7.7398e+00    3.6345e-01
  718   0.182469      -3.645442      -3.975958    7.7151e+00    3.6345e-01
  719   0.182468      -3.645993      -3.976669    7.6905e+00    3.6345e-01

---------------------- Local Time Stepping Summary ----------------------
MG level: 0 -> Min. DT: 0.0001238. Max. DT: 0.907. CFL: 2.5.
MG level: 1 -> Min. DT: 0.0001952. Max. DT: 1.386. CFL: 2.03.
MG level: 2 -> Min. DT: 0.00026. Max. DT: 1.853. CFL: 1.637.
MG level: 3 -> Min. DT: 0.0002287. Max. DT: 2.374. CFL: 1.304.
-------------------------------------------------------------------------

log10[Maximum residual]: -2.075.
Maximum residual point 438, located at (0.9999, 0.0003802).

 Iter    Time(s)   Res[Psi_Rho]     Res[Psi_E]      Sens_Geo      Sens_AoA
  720   0.182467      -3.646544      -3.977382    7.6659e+00    3.6345e-01
  721   0.182469      -3.647095      -3.978095    7.6413e+00    3.6345e-01
  722   0.182469      -3.647646      -3.978810    7.6167e+00    3.6345e-01
  723   0.182469      -3.648196      -3.979526    7.5921e+00    3.6345e-01
  724   0.182470      -3.648747      -3.980243    7.5675e+00    3.6345e-01
  725   0.182469      -3.649298      -3.980962    7.5429e+00    3.6345e-01
  726   0.182468      -3.649848      -3.981681    7.5184e+00    3.6345e-01
  727   0.182469      -3.650399      -3.982403    7.4938e+00    3.6345e-01
  728   0.182469      -3.650949      -3.983125    7.4693e+00    3.6344e-01
  729   0.182468      -3.651499      -3.983849    7.4447e+00    3.6344e-01
  730   0.182467      -3.652050      -3.984574    7.4202e+00    3.6344e-01
  731   0.182466      -3.652600      -3.985300    7.3957e+00    3.6344e-01
  732   0.182467      -3.653150      -3.986028    7.3712e+00    3.6344e-01
  733   0.182466      -3.653700      -3.986757    7.3467e+00    3.6344e-01
  734   0.182465      -3.654251      -3.987487    7.3223e+00    3.6344e-01
  735   0.182464      -3.654801      -3.988219    7.2978e+00    3.6344e-01
  736   0.182462      -3.655351      -3.988952    7.2734e+00    3.6344e-01
  737   0.182460      -3.655901      -3.989687    7.2490e+00    3.6344e-01
  738   0.182460      -3.656451      -3.990423    7.2246e+00    3.6344e-01
  739   0.182460      -3.657001      -3.991160    7.2002e+00    3.6344e-01
  740   0.182458      -3.657550      -3.991899    7.1759e+00    3.6344e-01
  741   0.182457      -3.658100      -3.992639    7.1515e+00    3.6344e-01
  742   0.182455      -3.658650      -3.993380    7.1272e+00    3.6344e-01
  743   0.182455      -3.659200      -3.994123    7.1029e+00    3.6344e-01
  744   0.182454      -3.659749      -3.994868    7.0786e+00    3.6343e-01
  745   0.182453      -3.660299      -3.995613    7.0543e+00    3.6343e-01
  746   0.182452      -3.660849      -3.996360    7.0301e+00    3.6343e-01
  747   0.182451      -3.661398      -3.997109    7.0059e+00    3.6343e-01
  748   0.182449      -3.661948      -3.997859    6.9817e+00    3.6343e-01
  749   0.182450      -3.662497      -3.998611    6.9575e+00    3.6343e-01
  750   0.182449      -3.663046      -3.999364    6.9334e+00    3.6343e-01

-------------------------- File Output Summary --------------------------
Writing comma-separated values (CSV) surface files.
Merging connectivities in the Master node.
Merging coordinates in the Master node.
Merging solution in the Master node.
Writing SU2 native restart file.
Writing Paraview ASCII volume solution file.
Writing Paraview ASCII surface solution file.
-------------------------------------------------------------------------

  751   0.182534      -3.663596      -4.000118    6.9092e+00    3.6343e-01
  752   0.182532      -3.664145      -4.000874    6.8852e+00    3.6343e-01
  753   0.182532      -3.664694      -4.001631    6.8611e+00    3.6343e-01
  754   0.182531      -3.665244      -4.002390    6.8370e+00    3.6343e-01
  755   0.182530      -3.665793      -4.003150    6.8130e+00    3.6343e-01
  756   0.182528      -3.666342      -4.003912    6.7890e+00    3.6343e-01
  757   0.182527      -3.666891      -4.004675    6.7651e+00    3.6343e-01
  758   0.182525      -3.667440      -4.005440    6.7411e+00    3.6343e-01
  759   0.182523      -3.667990      -4.006206    6.7172e+00    3.6343e-01

---------------------- Local Time Stepping Summary ----------------------
MG level: 0 -> Min. DT: 0.0001238. Max. DT: 0.907. CFL: 2.5.
MG level: 1 -> Min. DT: 0.0001952. Max. DT: 1.386. CFL: 2.03.
MG level: 2 -> Min. DT: 0.00026. Max. DT: 1.853. CFL: 1.637.
MG level: 3 -> Min. DT: 0.0002287. Max. DT: 2.374. CFL: 1.304.
-------------------------------------------------------------------------

log10[Maximum residual]: -2.094.
Maximum residual point 438, located at (0.9999, 0.0003802).

 Iter    Time(s)   Res[Psi_Rho]     Res[Psi_E]      Sens_Geo      Sens_AoA
  760   0.182524      -3.668539      -4.006974    6.6933e+00    3.6343e-01
  761   0.182522      -3.669088      -4.007743    6.6695e+00    3.6342e-01
  762   0.182521      -3.669637      -4.008514    6.6456e+00    3.6342e-01
  763   0.182519      -3.670186      -4.009287    6.6219e+00    3.6342e-01
  764   0.182518      -3.670735      -4.010060    6.5981e+00    3.6342e-01
  765   0.182517      -3.671284      -4.010836    6.5744e+00    3.6342e-01
  766   0.182516      -3.671832      -4.011613    6.5507e+00    3.6342e-01
  767   0.182517      -3.672381      -4.012391    6.5270e+00    3.6342e-01
  768   0.182516      -3.672930      -4.013171    6.5034e+00    3.6342e-01
  769   0.182515      -3.673479      -4.013953    6.4798e+00    3.6342e-01
  770   0.182516      -3.674028      -4.014736    6.4562e+00    3.6342e-01
  771   0.182515      -3.674577      -4.015520    6.4327e+00    3.6342e-01
  772   0.182514      -3.675125      -4.016306    6.4092e+00    3.6342e-01
  773   0.182513      -3.675674      -4.017094    6.3857e+00    3.6342e-01
  774   0.182513      -3.676223      -4.017883    6.3623e+00    3.6342e-01
  775   0.182513      -3.676771      -4.018674    6.3389e+00    3.6342e-01
  776   0.182513      -3.677320      -4.019466    6.3156e+00    3.6342e-01
  777   0.182513      -3.677869      -4.020260    6.2922e+00    3.6342e-01
[...]
 1497   0.182529      -4.092442      -4.562217    4.1371e+00    3.6314e-01
 1498   0.182529      -4.093033      -4.562391    4.1459e+00    3.6314e-01
 1499   0.182530      -4.093623      -4.562564    4.1547e+00    3.6314e-01
 1500   0.182531      -4.094213      -4.562738    4.1635e+00    3.6314e-01

-------------------------- File Output Summary --------------------------
Writing comma-separated values (CSV) surface files.
Merging connectivities in the Master node.
Merging coordinates in the Master node.
Merging solution in the Master node.
Writing SU2 native restart file.
Writing Paraview ASCII volume solution file.
Writing Paraview ASCII surface solution file.
-------------------------------------------------------------------------

 1501   0.182574      -4.094803      -4.562911    4.1723e+00    3.6314e-01
 1502   0.182574      -4.095392      -4.563083    4.1812e+00    3.6314e-01
 1503   0.182573      -4.095982      -4.563256    4.1900e+00    3.6314e-01
 1504   0.182575      -4.096572      -4.563428    4.1988e+00    3.6314e-01
 1505   0.182575      -4.097161      -4.563600    4.2076e+00    3.6314e-01
 1506   0.182576      -4.097751      -4.563771    4.2164e+00    3.6314e-01
 1507   0.182575      -4.098340      -4.563942    4.2252e+00    3.6314e-01
 1508   0.182575      -4.098930      -4.564113    4.2340e+00    3.6314e-01
 1509   0.182576      -4.099519      -4.564284    4.2428e+00    3.6314e-01
 1510   0.182577      -4.100108      -4.564454    4.2516e+00    3.6314e-01
 1511   0.182578      -4.100697      -4.564624    4.2605e+00    3.6314e-01
 1512   0.182578      -4.101286      -4.564794    4.2693e+00    3.6314e-01
 1513   0.182578      -4.101875      -4.564964    4.2781e+00    3.6314e-01
 1514   0.182578      -4.102464      -4.565133    4.2869e+00    3.6314e-01
 1515   0.182579      -4.103053      -4.565303    4.2957e+00    3.6314e-01
 1516   0.182580      -4.103641      -4.565472    4.3045e+00    3.6314e-01
 1517   0.182581      -4.104230      -4.565641    4.3133e+00    3.6314e-01
 1518   0.182581      -4.104818      -4.565809    4.3221e+00    3.6314e-01
 1519   0.182581      -4.105407      -4.565978    4.3309e+00    3.6314e-01

---------------------- Local Time Stepping Summary ----------------------
MG level: 0 -> Min. DT: 0.0001238. Max. DT: 0.907. CFL: 2.5.
MG level: 1 -> Min. DT: 0.0001952. Max. DT: 1.386. CFL: 2.03.
MG level: 2 -> Min. DT: 0.00026. Max. DT: 1.853. CFL: 1.637.
MG level: 3 -> Min. DT: 0.0002287. Max. DT: 2.374. CFL: 1.304.
-------------------------------------------------------------------------

log10[Maximum residual]: -2.553.
Maximum residual point 438, located at (0.9999, 0.0003802).

 Iter    Time(s)   Res[Psi_Rho]     Res[Psi_E]      Sens_Geo      Sens_AoA
 1520   0.182580      -4.105995      -4.566146    4.3397e+00    3.6314e-01
 1521   0.182581      -4.106583      -4.566315    4.3485e+00    3.6314e-01
 1522   0.182581      -4.107171      -4.566483    4.3573e+00    3.6314e-01
 1523   0.182581      -4.107759      -4.566651    4.3661e+00    3.6314e-01
 1524   0.182581      -4.108347      -4.566818    4.3749e+00    3.6313e-01
 1525   0.182581      -4.108935      -4.566986    4.3837e+00    3.6313e-01
 1526   0.182582      -4.109523      -4.567154    4.3925e+00    3.6313e-01
 1527   0.182583      -4.110110      -4.567321    4.4013e+00    3.6313e-01
 1528   0.182583      -4.110698      -4.567489    4.4101e+00    3.6313e-01
 1529   0.182583      -4.111285      -4.567656    4.4189e+00    3.6313e-01
 1530   0.182584      -4.111872      -4.567823    4.4277e+00    3.6313e-01
 1531   0.182584      -4.112460      -4.567990    4.4365e+00    3.6313e-01
 1532   0.182585      -4.113047      -4.568158    4.4452e+00    3.6313e-01
 1533   0.182585      -4.113634      -4.568325    4.4540e+00    3.6313e-01
 1534   0.182585      -4.114221      -4.568492    4.4628e+00    3.6313e-01
 1535   0.182585      -4.114808      -4.568659    4.4716e+00    3.6313e-01
 1536   0.182586      -4.115394      -4.568826    4.4804e+00    3.6313e-01
 1537   0.182586      -4.115981      -4.568993    4.4891e+00    3.6313e-01
 1538   0.182587      -4.116567      -4.569159    4.4979e+00    3.6313e-01
 1539   0.182587      -4.117154      -4.569326    4.5067e+00    3.6313e-01
 1540   0.182588      -4.117740      -4.569493    4.5154e+00    3.6313e-01
 1541   0.182588      -4.118327      -4.569660    4.5242e+00    3.6313e-01
 1542   0.182589      -4.118913      -4.569827    4.5330e+00    3.6313e-01
 1543   0.182589      -4.119499      -4.569994    4.5417e+00    3.6313e-01
 1544   0.182589      -4.120085      -4.570161    4.5505e+00    3.6313e-01
 1545   0.182589      -4.120670      -4.570328    4.5592e+00    3.6313e-01
 1546   0.182591      -4.121256      -4.570495    4.5680e+00    3.6313e-01
 1547   0.182593      -4.121842      -4.570662    4.5767e+00    3.6313e-01
 1548   0.182596      -4.122427      -4.570829    4.5855e+00    3.6313e-01
 1549   0.182599      -4.123013      -4.570996    4.5942e+00    3.6313e-01
 1550   0.182603      -4.123598      -4.571163    4.6029e+00    3.6313e-01
 1551   0.182604      -4.124183      -4.571331    4.6117e+00    3.6313e-01
 1552   0.182604      -4.124768      -4.571498    4.6204e+00    3.6313e-01
 1553   0.182604      -4.125353      -4.571666    4.6291e+00    3.6313e-01
 1554   0.182605      -4.125938      -4.571833    4.6378e+00    3.6313e-01
 1555   0.182605      -4.126523      -4.572001    4.6466e+00    3.6313e-01
 1556   0.182605      -4.127108      -4.572169    4.6553e+00    3.6313e-01
 1557   0.182607      -4.127692      -4.572336    4.6640e+00    3.6313e-01
 1558   0.182608      -4.128277      -4.572504    4.6727e+00    3.6313e-01
 1559   0.182609      -4.128861      -4.572672    4.6814e+00    3.6313e-01

---------------------- Local Time Stepping Summary ----------------------
MG level: 0 -> Min. DT: 0.0001238. Max. DT: 0.907. CFL: 2.5.
MG level: 1 -> Min. DT: 0.0001952. Max. DT: 1.386. CFL: 2.03.
MG level: 2 -> Min. DT: 0.00026. Max. DT: 1.853. CFL: 1.637.
MG level: 3 -> Min. DT: 0.0002287. Max. DT: 2.374. CFL: 1.304.
-------------------------------------------------------------------------

log10[Maximum residual]: -2.584.
Maximum residual point 438, located at (0.9999, 0.0003802).

 Iter    Time(s)   Res[Psi_Rho]     Res[Psi_E]      Sens_Geo      Sens_AoA
 1560   0.182609      -4.129445      -4.572841    4.6901e+00    3.6313e-01
 1561   0.182610      -4.130029      -4.573009    4.6988e+00    3.6313e-01
 1562   0.182612      -4.130614      -4.573178    4.7075e+00    3.6313e-01
 1563   0.182614      -4.131197      -4.573346    4.7162e+00    3.6313e-01
 1564   0.182615      -4.131781      -4.573515    4.7248e+00    3.6313e-01
 1565   0.182618      -4.132365      -4.573684    4.7335e+00    3.6313e-01
 1566   0.182619      -4.132949      -4.573853    4.7422e+00    3.6313e-01
 1567   0.182621      -4.133532      -4.574022    4.7509e+00    3.6313e-01
 1568   0.182623      -4.134115      -4.574192    4.7595e+00    3.6313e-01
 1569   0.182627      -4.134699      -4.574361    4.7682e+00    3.6313e-01
 1570   0.182629      -4.135282      -4.574531    4.7768e+00    3.6313e-01
 1571   0.182629      -4.135865      -4.574701    4.7855e+00    3.6312e-01
 1572   0.182630      -4.136448      -4.574871    4.7941e+00    3.6312e-01
 1573   0.182630      -4.137031      -4.575042    4.8028e+00    3.6312e-01
 1574   0.182632      -4.137613      -4.575212    4.8114e+00    3.6312e-01
 1575   0.182635      -4.138196      -4.575383    4.8201e+00    3.6312e-01
 1576   0.182637      -4.138778      -4.575554    4.8287e+00    3.6312e-01
 1577   0.182639      -4.139361      -4.575725    4.8373e+00    3.6312e-01
 1578   0.182640      -4.139943      -4.575896    4.8459e+00    3.6312e-01
 1579   0.182641      -4.140525      -4.576068    4.8545e+00    3.6312e-01
 1580   0.182642      -4.141107      -4.576240    4.8632e+00    3.6312e-01
 1581   0.182643      -4.141689      -4.576412    4.8718e+00    3.6312e-01
 1582   0.182646      -4.142271      -4.576584    4.8804e+00    3.6312e-01
 1583   0.182651      -4.142853      -4.576757    4.8889e+00    3.6312e-01
 1584   0.182660      -4.143434      -4.576930    4.8975e+00    3.6312e-01
 1585   0.182666      -4.144016      -4.577103    4.9061e+00    3.6312e-01
 1586   0.182669      -4.144597      -4.577276    4.9147e+00    3.6312e-01
 1587   0.182671      -4.145178      -4.577450    4.9233e+00    3.6312e-01
 1588   0.182672      -4.145759      -4.577624    4.9318e+00    3.6312e-01
 1589   0.182678      -4.146340      -4.577798    4.9404e+00    3.6312e-01
 1590   0.182681      -4.146921      -4.577972    4.9489e+00    3.6312e-01
 1591   0.182685      -4.147502      -4.578147    4.9575e+00    3.6312e-01
 1592   0.182691      -4.148082      -4.578322    4.9660e+00    3.6312e-01
 1593   0.182697      -4.148663      -4.578497    4.9746e+00    3.6312e-01
 1594   0.182699      -4.149243      -4.578672    4.9831e+00    3.6312e-01
 1595   0.182704      -4.149824      -4.578848    4.9916e+00    3.6312e-01
 1596   0.182709      -4.150404      -4.579024    5.0001e+00    3.6312e-01
 1597   0.182717      -4.150984      -4.579201    5.0087e+00    3.6312e-01
 1598   0.182722      -4.151564      -4.579377    5.0172e+00    3.6312e-01
 1599   0.182723      -4.152144      -4.579554    5.0257e+00    3.6312e-01

---------------------- Local Time Stepping Summary ----------------------
MG level: 0 -> Min. DT: 0.0001238. Max. DT: 0.907. CFL: 2.5.
MG level: 1 -> Min. DT: 0.0001952. Max. DT: 1.386. CFL: 2.03.
MG level: 2 -> Min. DT: 0.00026. Max. DT: 1.853. CFL: 1.637.
MG level: 3 -> Min. DT: 0.0002287. Max. DT: 2.374. CFL: 1.304.
-------------------------------------------------------------------------

log10[Maximum residual]: -2.616.
Maximum residual point 438, located at (0.9999, 0.0003802).

 Iter    Time(s)   Res[Psi_Rho]     Res[Psi_E]      Sens_Geo      Sens_AoA
 1600   0.182723      -4.152723      -4.579732    5.0342e+00    3.6312e-01
 1601   0.182728      -4.153303      -4.579909    5.0426e+00    3.6312e-01
 1602   0.182729      -4.153882      -4.580087    5.0511e+00    3.6312e-01
 1603   0.182729      -4.154462      -4.580266    5.0596e+00    3.6312e-01
 1604   0.182730      -4.155041      -4.580444    5.0681e+00    3.6312e-01
 1605   0.182729      -4.155620      -4.580623    5.0765e+00    3.6312e-01
 1606   0.182732      -4.156199      -4.580802    5.0850e+00    3.6312e-01
 1607   0.182736      -4.156778      -4.580982    5.0934e+00    3.6312e-01
 1608   0.182741      -4.157356      -4.581162    5.1019e+00    3.6312e-01
 1609   0.182742      -4.157935      -4.581342    5.1103e+00    3.6312e-01
 1610   0.182748      -4.158513      -4.581523    5.1188e+00    3.6312e-01
 1611   0.182749      -4.159092      -4.581704    5.1272e+00    3.6312e-01
 1612   0.182751      -4.159670      -4.581885    5.1356e+00    3.6312e-01
 1613   0.182752      -4.160248      -4.582066    5.1440e+00    3.6312e-01
 1614   0.182753      -4.160826      -4.582248    5.1524e+00    3.6312e-01
 1615   0.182755      -4.161404      -4.582431    5.1608e+00    3.6312e-01
 1616   0.182756      -4.161982      -4.582614    5.1692e+00    3.6312e-01
 1617   0.182757      -4.162559      -4.582797    5.1776e+00    3.6312e-01
 1618   0.182766      -4.163137      -4.582980    5.1860e+00    3.6312e-01
 1619   0.182774      -4.163714      -4.583164    5.1943e+00    3.6312e-01
 1620   0.182782      -4.164292      -4.583348    5.2027e+00    3.6312e-01
 1621   0.182790      -4.164869      -4.583533    5.2110e+00    3.6311e-01
 1622   0.182793      -4.165446      -4.583717    5.2194e+00    3.6311e-01
 1623   0.182793      -4.166023      -4.583903    5.2277e+00    3.6311e-01
 1624   0.182795      -4.166599      -4.584088    5.2361e+00    3.6311e-01
 1625   0.182800      -4.167176      -4.584274    5.2444e+00    3.6311e-01
 1626   0.182803      -4.167753      -4.584461    5.2527e+00    3.6311e-01
 1627   0.182803      -4.168329      -4.584648    5.2610e+00    3.6311e-01
 1628   0.182802      -4.168905      -4.584835    5.2693e+00    3.6311e-01
 1629   0.182802      -4.169481      -4.585023    5.2776e+00    3.6311e-01
 1630   0.182802      -4.170057      -4.585211    5.2859e+00    3.6311e-01
 1631   0.182806      -4.170633      -4.585399    5.2942e+00    3.6311e-01
 1632   0.182804      -4.171209      -4.585588    5.3025e+00    3.6311e-01
 1633   0.182805      -4.171785      -4.585777    5.3107e+00    3.6311e-01
 1634   0.182804      -4.172360      -4.585966    5.3190e+00    3.6311e-01
 1635   0.182803      -4.172936      -4.586156    5.3272e+00    3.6311e-01
 1636   0.182801      -4.173511      -4.586347    5.3355e+00    3.6311e-01
 1637   0.182800      -4.174086      -4.586538    5.3437e+00    3.6311e-01
 1638   0.182799      -4.174661      -4.586729    5.3520e+00    3.6311e-01
 1639   0.182798      -4.175236      -4.586921    5.3602e+00    3.6311e-01

---------------------- Local Time Stepping Summary ----------------------
MG level: 0 -> Min. DT: 0.0001238. Max. DT: 0.907. CFL: 2.5.
MG level: 1 -> Min. DT: 0.0001952. Max. DT: 1.386. CFL: 2.03.
MG level: 2 -> Min. DT: 0.00026. Max. DT: 1.853. CFL: 1.637.
MG level: 3 -> Min. DT: 0.0002287. Max. DT: 2.374. CFL: 1.304.
-------------------------------------------------------------------------

log10[Maximum residual]: -2.649.
Maximum residual point 438, located at (0.9999, 0.0003802).

 Iter    Time(s)   Res[Psi_Rho]     Res[Psi_E]      Sens_Geo      Sens_AoA
 1640   0.182800      -4.175811      -4.587113    5.3684e+00    3.6311e-01
 1641   0.182800      -4.176385      -4.587305    5.3766e+00    3.6311e-01
 1642   0.182798      -4.176960      -4.587498    5.3848e+00    3.6311e-01
 1643   0.182796      -4.177534      -4.587691    5.3930e+00    3.6311e-01
 1644   0.182796      -4.178108      -4.587885    5.4012e+00    3.6311e-01
 1645   0.182797      -4.178682      -4.588079    5.4093e+00    3.6311e-01
 1646   0.182798      -4.179256      -4.588274    5.4175e+00    3.6311e-01
 1647   0.182797      -4.179830      -4.588468    5.4256e+00    3.6311e-01
 1648   0.182798      -4.180404      -4.588664    5.4338e+00    3.6311e-01
 1649   0.182798      -4.180978      -4.588860    5.4419e+00    3.6311e-01
 1650   0.182799      -4.181551      -4.589056    5.4501e+00    3.6311e-01
 1651   0.182798      -4.182125      -4.589253    5.4582e+00    3.6311e-01
 1652   0.182797      -4.182698      -4.589450    5.4663e+00    3.6311e-01
 1653   0.182798      -4.183271      -4.589647    5.4744e+00    3.6311e-01
 1654   0.182796      -4.183844      -4.589845    5.4825e+00    3.6311e-01
 1655   0.182795      -4.184417      -4.590044    5.4906e+00    3.6311e-01
 1656   0.182794      -4.184990      -4.590242    5.4987e+00    3.6311e-01
 1657   0.182795      -4.185562      -4.590442    5.5068e+00    3.6311e-01
 1658   0.182797      -4.186135      -4.590641    5.5148e+00    3.6311e-01
 1659   0.182797      -4.186707      -4.590842    5.5229e+00    3.6311e-01
 1660   0.182797      -4.187279      -4.591042    5.5309e+00    3.6311e-01
 1661   0.182803      -4.187851      -4.591243    5.5390e+00    3.6311e-01
 1662   0.182805      -4.188423      -4.591445    5.5470e+00    3.6311e-01
 1663   0.182804      -4.188995      -4.591647    5.5550e+00    3.6311e-01
 1664   0.182802      -4.189567      -4.591849    5.5630e+00    3.6311e-01
 1665   0.182802      -4.190138      -4.592052    5.5710e+00    3.6311e-01
 1666   0.182801      -4.190710      -4.592255    5.5790e+00    3.6311e-01
 1667   0.182800      -4.191281      -4.592459    5.5870e+00    3.6311e-01
 1668   0.182799      -4.191852      -4.592663    5.5950e+00    3.6311e-01
 1669   0.182799      -4.192423      -4.592868    5.6030e+00    3.6311e-01
 1670   0.182801      -4.192994      -4.593073    5.6109e+00    3.6311e-01
 1671   0.182800      -4.193565      -4.593278    5.6189e+00    3.6311e-01
 1672   0.182799      -4.194136      -4.593484    5.6268e+00    3.6311e-01
 1673   0.182798      -4.194706      -4.593690    5.6347e+00    3.6311e-01
 1674   0.182800      -4.195277      -4.593897    5.6427e+00    3.6311e-01
 1675   0.182800      -4.195847      -4.594105    5.6506e+00    3.6310e-01
 1676   0.182800      -4.196417      -4.594312    5.6585e+00    3.6310e-01
 1677   0.182798      -4.196987      -4.594521    5.6664e+00    3.6310e-01
 1678   0.182799      -4.197557      -4.594729    5.6743e+00    3.6310e-01
 1679   0.182798      -4.198127      -4.594938    5.6822e+00    3.6310e-01

---------------------- Local Time Stepping Summary ----------------------
MG level: 0 -> Min. DT: 0.0001238. Max. DT: 0.907. CFL: 2.5.
MG level: 1 -> Min. DT: 0.0001952. Max. DT: 1.386. CFL: 2.03.
MG level: 2 -> Min. DT: 0.00026. Max. DT: 1.853. CFL: 1.637.
MG level: 3 -> Min. DT: 0.0002287. Max. DT: 2.374. CFL: 1.304.
-------------------------------------------------------------------------

log10[Maximum residual]: -2.682.
Maximum residual point 438, located at (0.9999, 0.0003802).

 Iter    Time(s)   Res[Psi_Rho]     Res[Psi_E]      Sens_Geo      Sens_AoA
 1680   0.182797      -4.198697      -4.595148    5.6900e+00    3.6310e-01
 1681   0.182796      -4.199266      -4.595358    5.6979e+00    3.6310e-01
 1682   0.182797      -4.199836      -4.595568    5.7057e+00    3.6310e-01
 1683   0.182797      -4.200405      -4.595779    5.7136e+00    3.6310e-01
 1684   0.182797      -4.200974      -4.595991    5.7214e+00    3.6310e-01
 1685   0.182796      -4.201543      -4.596203    5.7293e+00    3.6310e-01
 1686   0.182795      -4.202112      -4.596415    5.7371e+00    3.6310e-01
 1687   0.182793      -4.202681      -4.596628    5.7449e+00    3.6310e-01
 1688   0.182792      -4.203250      -4.596841    5.7527e+00    3.6310e-01
 1689   0.182791      -4.203818      -4.597055    5.7605e+00    3.6310e-01
 1690   0.182791      -4.204386      -4.597269    5.7682e+00    3.6310e-01
 1691   0.182791      -4.204955      -4.597483    5.7760e+00    3.6310e-01
 1692   0.182791      -4.205523      -4.597698    5.7838e+00    3.6310e-01
 1693   0.182793      -4.206091      -4.597914    5.7915e+00    3.6310e-01
 1694   0.182797      -4.206659      -4.598130    5.7993e+00    3.6310e-01
 1695   0.182798      -4.207226      -4.598346    5.8070e+00    3.6310e-01
 1696   0.182797      -4.207794      -4.598563    5.8147e+00    3.6310e-01
 1697   0.182795      -4.208361      -4.598781    5.8224e+00    3.6310e-01
 1698   0.182798      -4.208929      -4.598998    5.8301e+00    3.6310e-01
 1699   0.182801      -4.209496      -4.599217    5.8378e+00    3.6310e-01
 1700   0.182800      -4.210063      -4.599436    5.8455e+00    3.6310e-01
 1701   0.182801      -4.210630      -4.599655    5.8532e+00    3.6310e-01
 1702   0.182801      -4.211197      -4.599874    5.8608e+00    3.6310e-01
 1703   0.182800      -4.211764      -4.600094    5.8685e+00    3.6310e-01
 1704   0.182800      -4.212330      -4.600315    5.8761e+00    3.6310e-01
 1705   0.182799      -4.212897      -4.600536    5.8838e+00    3.6310e-01
 1706   0.182800      -4.213463      -4.600758    5.8914e+00    3.6310e-01
 1707   0.182805      -4.214029      -4.600980    5.8990e+00    3.6310e-01
 1708   0.182808      -4.214595      -4.601202    5.9066e+00    3.6310e-01
 1709   0.182811      -4.215161      -4.601425    5.9142e+00    3.6310e-01
 1710   0.182813      -4.215727      -4.601648    5.9218e+00    3.6310e-01
 1711   0.182812      -4.216293      -4.601872    5.9294e+00    3.6310e-01
 1712   0.182810      -4.216858      -4.602096    5.9370e+00    3.6310e-01
 1713   0.182811      -4.217424      -4.602321    5.9445e+00    3.6310e-01
 1714   0.182814      -4.217989      -4.602546    5.9521e+00    3.6310e-01
 1715   0.182815      -4.218554      -4.602772    5.9596e+00    3.6310e-01
 1716   0.182821      -4.219119      -4.602998    5.9671e+00    3.6310e-01
 1717   0.182821      -4.219684      -4.603224    5.9746e+00    3.6310e-01
 1718   0.182820      -4.220249      -4.603451    5.9822e+00    3.6310e-01
