
-------------------------------------------------------------------------
|    ___ _   _ ___                                                      |
|   / __| | | |_  )   Release 5.0.0  "Raven"                            |
|   \__ \ |_| |/ /                                                      |
|   |___/\___//___|   Suite (Computational Fluid Dynamics Code)         |
|                                                                       |
-------------------------------------------------------------------------
| SU2 Original Developers: Dr. Francisco D. Palacios.                   |
|                          Dr. Thomas D. Economon.                      |
-------------------------------------------------------------------------
| SU2 Developers:                                                       |
| - Prof. Juan J. Alonso's group at Stanford University.                |
| - Prof. Piero Colonna's group at Delft University of Technology.      |
| - Prof. Nicolas R. Gauger's group at Kaiserslautern U. of Technology. |
| - Prof. Alberto Guardone's group at Polytechnic University of Milan.  |
| - Prof. Rafael Palacios' group at Imperial College London.            |
| - Prof. Edwin van der Weide's group at the University of Twente.      |
| - Prof. Vincent Terrapon's group at the University of Liege.          |
-------------------------------------------------------------------------
| Copyright (C) 2012-2017 SU2, the open-source CFD code.                |
|                                                                       |
| SU2 is free software; you can redistribute it and/or                  |
| modify it under the terms of the GNU Lesser General Public            |
| License as published by the Free Software Foundation; either          |
| version 2.1 of the License, or (at your option) any later version.    |
|                                                                       |
| SU2 is distributed in the hope that it will be useful,                |
| but WITHOUT ANY WARRANTY; without even the implied warranty of        |
| MERCHANTABILITY or FITNESS FOR A PARTICULAR PURPOSE. See the GNU      |
| Lesser General Public License for more details.                       |
|                                                                       |
| You should have received a copy of the GNU Lesser General Public      |
| License along with SU2. If not, see <http://www.gnu.org/licenses/>.   |
-------------------------------------------------------------------------

------------------------ Physical Case Definition -----------------------
Compressible Euler equations.
Mach number: 0.8.
Angle of attack (AoA): 1.25 deg, and angle of sideslip (AoS): 0 deg.
No restart solution, use the values at infinity (freestream).
Non-Dimensional simulation (P=1.0, Rho=1.0, T=1.0 at the farfield).
The reference length/area (force coefficient) is 1.
The reference length (moment computation) is 1.
Reference origin (moment computation) is (0.25, 0, 0).
Surface(s) where the force coefficients are evaluated: airfoil.
Surface(s) where the objective function is evaluated: airfoil.
Surface(s) plotted in the output file: airfoil.
Surface(s) affected by the design variables: airfoil.
Input mesh file name: mesh_NACA0012_inv_deform.su2

---------------------- Space Numerical Integration ----------------------
Jameson-Schmidt-Turkel scheme for the flow inviscid terms.
JST viscous coefficients (1st, 2nd & 4th): 0.15, 0.5, 0.02.
The method includes a grid stretching correction (p = 0.3).
Second order integration.
Gradient Computation using weighted Least-Squares method.

---------------------- Time Numerical Integration -----------------------
Local time stepping (steady state simulation).
Euler implicit method for the flow equations.
W Multigrid Cycle, with 3 multigrid levels.
Damping factor for the residual restriction: 1.
Damping factor for the correction prolongation: 1.
No CFL adaptation.
Multigrid Level:                       0     1     2     3
Courant-Friedrichs-Lewy number:        5
MG PreSmooth coefficients:             1     2     3     3
MG PostSmooth coefficients:            0     0     0     0
MG CorrecSmooth coefficients:          0     0     0     0

------------------------- Convergence Criteria --------------------------
Maximum number of iterations: 2000.
Cauchy criteria for Drag using 100 elements and epsilon 1e-06.
Start convergence criteria at iteration 10.

-------------------------- Output Information ---------------------------
Writing a flow solution every 250 iterations.
Writing the convergence history every 1 iterations.
The output file format is Paraview ASCII (.vtk).
Convergence history file name: history_direct.
Forces breakdown file name: forces_breakdown.dat.
Surface flow coefficients file name: surface_flow.
Flow variables file name: flow.
Restart flow file name: restart_flow.dat.

------------------- Config File Boundary Information --------------------
Euler wall boundary marker(s): airfoil.
Far-field boundary marker(s): farfield.

---------------------- Read Grid File Information -----------------------
Two dimensional problem.
5233 points.
2 surface markers.
200 boundary elements in index 0 (Marker = airfoil).
50 boundary elements in index 1 (Marker = farfield).
10216 triangles.

------------------------- Geometry Preprocessing ------------------------
Setting point connectivity.
Renumbering points (Reverse Cuthill McKee Ordering).
Recomputing point connectivity.
Setting element connectivity.
Checking the numerical grid orientation.
Identifying edges and vertices.
Computing centers of gravity.
Setting the control volume structure.
Area of the computational grid: 1.25e+03.
Searching for the closest normal neighbors to the surfaces.
Compute the surface curvature.
Max K: 7.84e+03. Mean K: 35.2. Standard deviation K: 494.
Checking for periodicity.
Setting the multigrid structure.
MG level: 0 -> CVs: 5233. Agglomeration rate 1/1.00. CFL 5.
MG level: 1 -> CVs: 1533. Agglomeration rate 1/3.41. CFL 4.06.
MG level: 2 -> CVs: 443. Agglomeration rate 1/3.46. CFL 3.27.
MG level: 3 -> CVs: 125. Agglomeration rate 1/3.54. CFL 2.61.
Computing wall distances.
Wetted area = 2.03 m.
Area projection in the x-plane = 0.11 m, y-plane = 1 m.

------------------------- Driver information --------------------------
A Fluid driver has been instantiated.

------------------------ Iteration Preprocessing ------------------------
Zone 1: Euler/Navier-Stokes/RANS flow iteration.

------------------------- Solver Preprocessing --------------------------
Inviscid flow: Computing density based on free-stream
temperature and pressure using the ideal gas law.
Force coefficients computed using free-stream values.
-- Input conditions:
Fluid Model: STANDARD_AIR 
Specific gas constant: 287.058 N.m/kg.K.
Specific gas constant (non-dim): 1
Specific Heat Ratio: 1.4
Free-stream static pressure: 101325 Pa.
Free-stream total pressure: 154454 Pa.
Free-stream temperature: 288.15 K.
Free-stream density: 1.22498 kg/m^3.
Free-stream velocity: (272.173, 5.93883) m/s. Magnitude: 272.238 m/s (529.186 KTS).
Free-stream total energy per unit mass: 243846 m^2/s^2.
-- Reference values:
Reference specific gas constant: 287.058 N.m/kg.K.
Reference pressure: 101325 Pa.
Reference temperature: 288.15 K.
Reference density: 1.22498 kg/m^3.
Reference velocity: 287.603 m/s.
Reference energy per unit mass: 82715.8 m^2/s^2.
-- Resulting non-dimensional state:
Mach number (non-dim): 0.8
Specific gas constant (non-dim): 1
Free-stream temperature (non-dim): 1
Free-stream pressure (non-dim): 1
Free-stream density (non-dim): 1
Free-stream velocity (non-dim): (0.946348, 0.0206494). Magnitude: 0.946573
Free-stream total energy per unit mass (non-dim): 2.948

Initialize Jacobian structure (Euler). MG level: 0.
Initialize Jacobian structure (Euler). MG level: 1.
Initialize Jacobian structure (Euler). MG level: 2.
Initialize Jacobian structure (Euler). MG level: 3.

----------------- Integration and Numerics Preprocessing ----------------
Integration Preprocessing.
Numerics Preprocessing.

------------------------------ Begin Solver -----------------------------

---------------------- Local Time Stepping Summary ----------------------
MG level: 0 -> Min. DT: 0.000222813. Max. DT: 1.81403. CFL: 5.
MG level: 1 -> Min. DT: 0.000367781. Max. DT: 2.77325. CFL: 4.05935.
MG level: 2 -> Min. DT: 0.000502725. Max. DT: 3.70661. CFL: 3.27325.
MG level: 3 -> Min. DT: 0.000446523. Max. DT: 4.74468. CFL: 2.6081.
-------------------------------------------------------------------------

----------------------- Residual Evolution Summary ----------------------
log10[Maximum residual]: -2.56775.
Maximum residual point 97, located at (0.00056, -0.00425412).
-------------------------------------------------------------------------

 Iter    Time(s)     Res[Rho]     Res[RhoE]      CL(Total)      CD(Total)
    0   0.179347    -3.623856     -3.027479       0.089224       0.086957
    1   0.177048    -3.508104     -2.889217       0.129718       0.045144
    2   0.176243    -3.689769     -3.104127       0.163941       0.030465
    3   0.176139    -3.705861     -3.137307       0.192479       0.021160
    4   0.175908    -3.751299     -3.187930       0.220159       0.015470
    5   0.175748    -3.780437     -3.229801       0.245600       0.011621
    6   0.175646    -3.796285     -3.247856       0.266999       0.008848
    7   0.175540    -3.835823     -3.283276       0.283772       0.006820
    8   0.175484    -3.900414     -3.351864       0.296376       0.005350
    9   0.175458    -3.960880     -3.425209       0.305570       0.004319
   10   0.175391    -3.996856     -3.467672       0.312060       0.003634
   11   0.175327    -4.029030     -3.497900       0.316482       0.003193
   12   0.175292    -4.073094     -3.541422       0.319413       0.002910
   13   0.175287    -4.124502     -3.598117       0.321349       0.002725
   14   0.175315    -4.174507     -3.656446       0.322669       0.002601
   15   0.175283    -4.220364     -3.708019       0.323625       0.002513
   16   0.175270    -4.264108     -3.753385       0.324355       0.002444
   17   0.175241    -4.307899     -3.797689       0.324931       0.002379
   18   0.175220    -4.351787     -3.843588       0.325405       0.002314
   19   0.175200    -4.395205     -3.890612       0.325809       0.002248
   20   0.175226    -4.437679     -3.937096       0.326169       0.002178
   21   0.175195    -4.479134     -3.982047       0.326496       0.002109
   22   0.175162    -4.519355     -4.025010       0.326789       0.002041
   23   0.175150    -4.558240     -4.066035       0.327040       0.001977
   24   0.175168    -4.596343     -4.105992       0.327245       0.001919
   25   0.175159    -4.634347     -4.145583       0.327408       0.001868
   26   0.175184    -4.672761     -4.185239       0.327535       0.001822
   27   0.175150    -4.711617     -4.224839       0.327639       0.001783
   28   0.175132    -4.750035     -4.263612       0.327731       0.001750
   29   0.175114    -4.787328     -4.301123       0.327820       0.001720
   30   0.175097    -4.822595     -4.336548       0.327909       0.001693
   31   0.175100    -4.855582     -4.369807       0.327998       0.001667
   32   0.175130    -4.886446     -4.401192       0.328084       0.001643
   33   0.175110    -4.915666     -4.431175       0.328162       0.001618
   34   0.175097    -4.943781     -4.460236       0.328231       0.001592
   35   0.175102    -4.971267     -4.488783       0.328285       0.001567
   36   0.175094    -4.998026     -4.516433       0.328325       0.001540
   37   0.175104    -5.024208     -4.543288       0.328347       0.001512
   38   0.175084    -5.049859     -4.569404       0.328352       0.001484
   39   0.175065    -5.075034     -4.594893       0.328341       0.001456

---------------------- Local Time Stepping Summary ----------------------
MG level: 0 -> Min. DT: 0.00024823. Max. DT: 1.814. CFL: 5.
MG level: 1 -> Min. DT: 0.000391555. Max. DT: 2.77189. CFL: 4.05935.
MG level: 2 -> Min. DT: 0.000521098. Max. DT: 3.70548. CFL: 3.27325.
MG level: 3 -> Min. DT: 0.000458543. Max. DT: 4.74763. CFL: 2.6081.
-------------------------------------------------------------------------

----------------------- Residual Evolution Summary ----------------------
log10[Maximum residual]: -4.09851.
Maximum residual point 613, located at (0.71305, 0.0682195).
-------------------------------------------------------------------------

 Iter    Time(s)     Res[Rho]     Res[RhoE]      CL(Total)      CD(Total)
   40   0.175055    -5.099835     -4.619889       0.328316       0.001428
   41   0.175042    -5.124319     -4.644407       0.328280       0.001401
   42   0.175014    -5.148222     -4.668155       0.328233       0.001376
   43   0.175032    -5.171567     -4.691305       0.328177       0.001353
   44   0.175024    -5.194011     -4.713495       0.328116       0.001332
   45   0.175019    -5.215338     -4.734580       0.328055       0.001313
   46   0.175005    -5.235482     -4.754613       0.327995       0.001296
   47   0.175008    -5.254408     -4.773553       0.327942       0.001282
   48   0.175010    -5.272031     -4.791312       0.327897       0.001271
   49   0.175007    -5.288508     -4.808060       0.327864       0.001261
   50   0.174993    -5.304002     -4.823894       0.327843       0.001253
   51   0.174989    -5.318679     -4.838862       0.327837       0.001247
   52   0.174993    -5.332679     -4.853037       0.327845       0.001242
   53   0.174991    -5.346123     -4.866548       0.327867       0.001238
   54   0.175001    -5.359233     -4.879674       0.327903       0.001235
   55   0.174990    -5.372313     -4.892778       0.327950       0.001233
   56   0.174981    -5.385406     -4.905860       0.328006       0.001232
   57   0.174973    -5.398698     -4.919147       0.328068       0.001230
   58   0.174963    -5.412322     -4.932827       0.328133       0.001229
   59   0.174956    -5.426318     -4.946953       0.328196       0.001227
   60   0.174962    -5.440672     -4.961504       0.328256       0.001225
   61   0.174954    -5.455282     -4.976364       0.328310       0.001223
   62   0.174948    -5.470143     -4.991531       0.328355       0.001221
   63   0.174943    -5.485179     -5.006894       0.328390       0.001218
   64   0.174940    -5.500307     -5.022344       0.328414       0.001215
   65   0.174930    -5.515470     -5.037787       0.328426       0.001211
   66   0.174940    -5.530633     -5.053162       0.328427       0.001208
   67   0.174935    -5.545649     -5.068276       0.328417       0.001204
   68   0.174929    -5.560438     -5.083043       0.328396       0.001200
   69   0.174925    -5.574844     -5.097304       0.328367       0.001196
   70   0.174923    -5.588843     -5.111079       0.328331       0.001193
   71   0.174925    -5.602434     -5.124400       0.328290       0.001189
   72   0.174919    -5.615483     -5.137132       0.328245       0.001186
   73   0.174911    -5.628019     -5.149339       0.328199       0.001183
   74   0.174908    -5.640035     -5.161045       0.328154       0.001181
   75   0.174903    -5.651554     -5.172311       0.328111       0.001179
   76   0.174899    -5.662607     -5.183173       0.328071       0.001177
   77   0.174908    -5.673257     -5.193705       0.328037       0.001176
   78   0.174902    -5.683590     -5.203988       0.328010       0.001175
   79   0.174895    -5.693687     -5.214104       0.327989       0.001175

---------------------- Local Time Stepping Summary ----------------------
MG level: 0 -> Min. DT: 0.000247749. Max. DT: 1.81399. CFL: 5.
MG level: 1 -> Min. DT: 0.000390551. Max. DT: 2.77189. CFL: 4.05935.
MG level: 2 -> Min. DT: 0.000519999. Max. DT: 3.70548. CFL: 3.27325.
MG level: 3 -> Min. DT: 0.000457504. Max. DT: 4.74763. CFL: 2.6081.
-------------------------------------------------------------------------

----------------------- Residual Evolution Summary ----------------------
log10[Maximum residual]: -4.64789.
Maximum residual point 1206, located at (0.393149, 0.137227).
-------------------------------------------------------------------------

 Iter    Time(s)     Res[Rho]     Res[RhoE]      CL(Total)      CD(Total)
   80   0.174892    -5.703692     -5.224192       0.327976       0.001175
   81   0.174890    -5.713748     -5.234363       0.327972       0.001175
   82   0.174889    -5.724006     -5.244745       0.327976       0.001175
   83   0.174900    -5.734681     -5.255556       0.327987       0.001175
   84   0.174897    -5.745903     -5.266915       0.328006       0.001176
   85   0.174892    -5.757823     -5.278966       0.328032       0.001177
   86   0.174890    -5.770509     -5.291751       0.328065       0.001178
   87   0.174888    -5.783969     -5.305267       0.328103       0.001178
   88   0.174882    -5.798183     -5.319504       0.328146       0.001179
   89   0.174884    -5.813073     -5.334398       0.328192       0.001180
   90   0.174882    -5.828479     -5.349789       0.328242       0.001181
   91   0.174876    -5.844315     -5.365626       0.328294       0.001181
   92   0.174875    -5.860451     -5.381808       0.328347       0.001182
   93   0.174876    -5.876655     -5.398092       0.328400       0.001182
   94   0.174886    -5.892788     -5.414365       0.328453       0.001182
   95   0.174883    -5.908685     -5.430467       0.328506       0.001182
   96   0.174881    -5.924235     -5.446290       0.328558       0.001182
   97   0.174879    -5.939347     -5.461733       0.328608       0.001182
   98   0.174874    -5.953950     -5.476714       0.328657       0.001182
   99   0.174869    -5.968004     -5.491169       0.328704       0.001182
  100   0.174874    -5.981548     -5.505111       0.328748       0.001181
  101   0.174872    -5.994668     -5.518606       0.328791       0.001181
  102   0.174872    -6.007448     -5.531709       0.328831       0.001180
  103   0.174869    -6.019966     -5.544472       0.328868       0.001180
  104   0.174868    -6.032310     -5.556965       0.328904       0.001179
  105   0.174862    -6.044544     -5.569242       0.328937       0.001179
  106   0.174870    -6.056800     -5.581444       0.328967       0.001178
  107   0.174870    -6.069215     -5.593715       0.328995       0.001178
  108   0.174868    -6.081909     -5.606177       0.329021       0.001177
  109   0.174867    -6.094974     -5.618944       0.329044       0.001176
  110   0.174865    -6.108478     -5.632101       0.329065       0.001176
  111   0.174864    -6.122463     -5.645705       0.329083       0.001175
  112   0.174866    -6.136903     -5.659738       0.329100       0.001175
  113   0.174864    -6.151863     -5.674305       0.329113       0.001175
  114   0.174864    -6.167318     -5.689408       0.329125       0.001174
  115   0.174861    -6.183191     -5.704982       0.329134       0.001174
  116   0.174861    -6.199464     -5.721049       0.329142       0.001173
  117   0.174865    -6.216033     -5.737508       0.329147       0.001173
  118   0.174862    -6.232809     -5.754271       0.329150       0.001173
  119   0.174858    -6.249810     -5.771402       0.329151       0.001172

---------------------- Local Time Stepping Summary ----------------------
MG level: 0 -> Min. DT: 0.000247719. Max. DT: 1.81399. CFL: 5.
MG level: 1 -> Min. DT: 0.00039045. Max. DT: 2.77188. CFL: 4.05935.
MG level: 2 -> Min. DT: 0.000519943. Max. DT: 3.70548. CFL: 3.27325.
MG level: 3 -> Min. DT: 0.000457395. Max. DT: 4.74764. CFL: 2.6081.
-------------------------------------------------------------------------

----------------------- Residual Evolution Summary ----------------------
log10[Maximum residual]: -5.15135.
Maximum residual point 970, located at (0.46552, 0.11775).
-------------------------------------------------------------------------

 Iter    Time(s)     Res[Rho]     Res[RhoE]      CL(Total)      CD(Total)
  120   0.174854    -6.266986     -5.788840       0.329151       0.001172
  121   0.174854    -6.284218     -5.806426       0.329149       0.001172
  122   0.174853    -6.301472     -5.824133       0.329146       0.001171
  123   0.174862    -6.318654     -5.841858       0.329142       0.001171
  124   0.174859    -6.335651     -5.859455       0.329136       0.001171
  125   0.174856    -6.352345     -5.876776       0.329130       0.001171
  126   0.174855    -6.368693     -5.893766       0.329123       0.001171
  127   0.174855    -6.384644     -5.910337       0.329116       0.001170
  128   0.174853    -6.400196     -5.926459       0.329108       0.001170
  129   0.174860    -6.415383     -5.942124       0.329100       0.001170
  130   0.174857    -6.430243     -5.957350       0.329092       0.001170
  131   0.174857    -6.444844     -5.972185       0.329084       0.001170
  132   0.174856    -6.459263     -5.986693       0.329077       0.001170
  133   0.174854    -6.473529     -6.000872       0.329070       0.001170
  134   0.174857    -6.487769     -6.014882       0.329064       0.001170
  135   0.174857    -6.502044     -6.028801       0.329058       0.001170
  136   0.174857    -6.516431     -6.042719       0.329053       0.001170
  137   0.174855    -6.531070     -6.056812       0.329049       0.001170
  138   0.174856    -6.546031     -6.071165       0.329045       0.001170
  139   0.174854    -6.561358     -6.085841       0.329043       0.001170
  140   0.174859    -6.577059     -6.100874       0.329042       0.001171
  141   0.174853    -6.593113     -6.116263       0.329041       0.001171
  142   0.174851    -6.609590     -6.132141       0.329042       0.001171
  143   0.174854    -6.626476     -6.148501       0.329043       0.001171
  144   0.174852    -6.643787     -6.165377       0.329045       0.001171
  145   0.174850    -6.661468     -6.182743       0.329048       0.001171
  146   0.174855    -6.679442     -6.200526       0.329052       0.001171
  147   0.174855    -6.697643     -6.218674       0.329056       0.001171
  148   0.174854    -6.716005     -6.237130       0.329061       0.001172
  149   0.174854    -6.734432     -6.255796       0.329066       0.001172
  150   0.174857    -6.752852     -6.274592       0.329072       0.001172
  151   0.174859    -6.771187     -6.293429       0.329078       0.001172
  152   0.174859    -6.789360     -6.312216       0.329084       0.001172
  153   0.174858    -6.807306     -6.330852       0.329090       0.001172
  154   0.174858    -6.824980     -6.349262       0.329097       0.001172
  155   0.174856    -6.842347     -6.367378       0.329103       0.001172
  156   0.174855    -6.859377     -6.385143       0.329109       0.001172
  157   0.174859    -6.876040     -6.402480       0.329116       0.001172
  158   0.174859    -6.892374     -6.419401       0.329122       0.001172
  159   0.174857    -6.908409     -6.435894       0.329127       0.001172

---------------------- Local Time Stepping Summary ----------------------
MG level: 0 -> Min. DT: 0.000247711. Max. DT: 1.81399. CFL: 5.
MG level: 1 -> Min. DT: 0.000390425. Max. DT: 2.77188. CFL: 4.05935.
MG level: 2 -> Min. DT: 0.000519927. Max. DT: 3.70548. CFL: 3.27325.
MG level: 3 -> Min. DT: 0.000457377. Max. DT: 4.74764. CFL: 2.6081.
-------------------------------------------------------------------------

----------------------- Residual Evolution Summary ----------------------
log10[Maximum residual]: -5.79911.
Maximum residual point 1455, located at (0.458683, 0.190545).
-------------------------------------------------------------------------

 Iter    Time(s)     Res[Rho]     Res[RhoE]      CL(Total)      CD(Total)
  160   0.174857    -6.924178     -6.451972       0.329133       0.001172
  161   0.174857    -6.939727     -6.467674       0.329138       0.001172
  162   0.174858    -6.955082     -6.483016       0.329143       0.001172
  163   0.174864    -6.970305     -6.498062       0.329147       0.001172
  164   0.174865    -6.985488     -6.512922       0.329151       0.001172
  165   0.174864    -7.000713     -6.527699       0.329154       0.001172
  166   0.174864    -7.016059     -6.542497       0.329158       0.001172
  167   0.174863    -7.031588     -6.557409       0.329160       0.001172
  168   0.174861    -7.047371     -6.572535       0.329162       0.001172
  169   0.174865    -7.063452     -6.587936       0.329164       0.001172
  170   0.174865    -7.079871     -6.603680       0.329166       0.001172
  171   0.174865    -7.096643     -6.619813       0.329167       0.001172
  172   0.174866    -7.113766     -6.636362       0.329167       0.001171
  173   0.174866    -7.131233     -6.653340       0.329168       0.001171
  174   0.174867    -7.149026     -6.670749       0.329168       0.001171
  175   0.174867    -7.167118     -6.688577       0.329167       0.001171
  176   0.174864    -7.185470     -6.706800       0.329167       0.001171
  177   0.174863    -7.204034     -6.725375       0.329166       0.001171
  178   0.174862    -7.222742     -6.744234       0.329165       0.001171
  179   0.174861    -7.241520     -6.763302       0.329163       0.001171
  180   0.174865    -7.260283     -6.782485       0.329162       0.001171
  181   0.174864    -7.278952     -6.801689       0.329160       0.001171
  182   0.174861    -7.297453     -6.820820       0.329159       0.001171
  183   0.174860    -7.315714     -6.839780       0.329157       0.001171
  184   0.174859    -7.333675     -6.858474       0.329156       0.001171
  185   0.174859    -7.351295     -6.876829       0.329154       0.001171
  186   0.174862    -7.368548     -6.894786       0.329152       0.001171
  187   0.174860    -7.385425     -6.912297       0.329151       0.001171
  188   0.174858    -7.401916     -6.929320       0.329149       0.001171
  189   0.174855    -7.418040     -6.945849       0.329147       0.001171
  190   0.174855    -7.433885     -6.961965       0.329146       0.001171
  191   0.174854    -7.449503     -6.977704       0.329145       0.001171
  192   0.174855    -7.464958     -6.993123       0.329143       0.001171
  193   0.174853    -7.480322     -7.008297       0.329142       0.001171
  194   0.174852    -7.495678     -7.023324       0.329141       0.001171
  195   0.174853    -7.511105     -7.038308       0.329141       0.001171
  196   0.174852    -7.526671     -7.053336       0.329140       0.001171
  197   0.174855    -7.542439     -7.068498       0.329139       0.001171
  198   0.174852    -7.558467     -7.083877       0.329139       0.001171
  199   0.174851    -7.574802     -7.099547       0.329139       0.001171

---------------------- Local Time Stepping Summary ----------------------
MG level: 0 -> Min. DT: 0.000247712. Max. DT: 1.81399. CFL: 5.
MG level: 1 -> Min. DT: 0.000390425. Max. DT: 2.77188. CFL: 4.05935.
MG level: 2 -> Min. DT: 0.000519925. Max. DT: 3.70548. CFL: 3.27325.
MG level: 3 -> Min. DT: 0.000457376. Max. DT: 4.74764. CFL: 2.6081.
-------------------------------------------------------------------------

----------------------- Residual Evolution Summary ----------------------
log10[Maximum residual]: -6.41396.
Maximum residual point 1206, located at (0.393149, 0.137227).
-------------------------------------------------------------------------

 Iter    Time(s)     Res[Rho]     Res[RhoE]      CL(Total)      CD(Total)
  200   0.174849    -7.591487     -7.115578       0.329138       0.001171
  201   0.174847    -7.608549     -7.132023       0.329138       0.001171
  202   0.174847    -7.625999     -7.148915       0.329138       0.001171
  203   0.174849    -7.643830     -7.166269       0.329139       0.001171
  204   0.174849    -7.662023     -7.184084       0.329139       0.001171
  205   0.174848    -7.680544     -7.202339       0.329139       0.001171
  206   0.174848    -7.699344     -7.221002       0.329140       0.001171
  207   0.174847    -7.718364     -7.240019       0.329140       0.001171
  208   0.174844    -7.737531     -7.259323       0.329141       0.001171
  209   0.174848    -7.756766     -7.278832       0.329141       0.001171
  210   0.174846    -7.775977     -7.298448       0.329142       0.001171
  211   0.174844    -7.795075     -7.318064       0.329143       0.001171
  212   0.174843    -7.813970     -7.337574       0.329143       0.001171
  213   0.174842    -7.832565     -7.356852       0.329144       0.001171
  214   0.174844    -7.850790     -7.375797       0.329145       0.001171
  215   0.174845    -7.868591     -7.394324       0.329145       0.001171
  216   0.174843    -7.885928     -7.412357       0.329146       0.001171
  217   0.174842    -7.902783     -7.429841       0.329147       0.001171
  218   0.174841    -7.919166     -7.446753       0.329147       0.001171
  219   0.174840    -7.935112     -7.463101       0.329148       0.001171
  220   0.174842    -7.950674     -7.478919       0.329148       0.001171
  221   0.174840    -7.965917     -7.494259       0.329149       0.001171
  222   0.174839    -7.980920     -7.509198       0.329149       0.001171
  223   0.174838    -7.995768     -7.523828       0.329150       0.001171
  224   0.174839    -8.010554     -7.538255       0.329150       0.001171
  225   0.174837    -8.025371     -7.552591       0.329151       0.001171
  226   0.174840    -8.040308     -7.566949       0.329151       0.001171
  227   0.174838    -8.055447     -7.581436       0.329151       0.001171
  228   0.174836    -8.070856     -7.596152       0.329151       0.001171
  229   0.174835    -8.086593     -7.611180       0.329152       0.001171
  230   0.174834    -8.102699     -7.626591       0.329152       0.001171
  231   0.174834    -8.119199     -7.642436       0.329152       0.001171
  232   0.174836    -8.136103     -7.658750       0.329152       0.001171
  233   0.174834    -8.153405     -7.675547       0.329152       0.001171
  234   0.174833    -8.171080     -7.692824       0.329152       0.001171
  235   0.174833    -8.189090     -7.710559       0.329152       0.001171
  236   0.174833    -8.207379     -7.728708       0.329152       0.001171
  237   0.174835    -8.225879     -7.747213       0.329152       0.001171
  238   0.174835    -8.244512     -7.765996       0.329151       0.001171
  239   0.174834    -8.263187     -7.784967       0.329151       0.001171

---------------------- Local Time Stepping Summary ----------------------
MG level: 0 -> Min. DT: 0.000247712. Max. DT: 1.81399. CFL: 5.
MG level: 1 -> Min. DT: 0.000390425. Max. DT: 2.77188. CFL: 4.05935.
MG level: 2 -> Min. DT: 0.000519925. Max. DT: 3.70548. CFL: 3.27325.
MG level: 3 -> Min. DT: 0.000457376. Max. DT: 4.74764. CFL: 2.6081.
-------------------------------------------------------------------------

----------------------- Residual Evolution Summary ----------------------
log10[Maximum residual]: -7.08787.
Maximum residual point 970, located at (0.46552, 0.11775).
-------------------------------------------------------------------------

 Iter    Time(s)     Res[Rho]     Res[RhoE]      CL(Total)      CD(Total)
  240   0.174833    -8.281809     -7.804019       0.329151       0.001171
  241   0.174833    -8.300280     -7.823040       0.329151       0.001171
  242   0.174831    -8.318508     -7.841912       0.329151       0.001171
  243   0.174834    -8.336405     -7.860520       0.329151       0.001171
  244   0.174833    -8.353898     -7.878756       0.329150       0.001171
  245   0.174831    -8.370933     -7.896528       0.329150       0.001171
  246   0.174830    -8.387476     -7.913763       0.329150       0.001171
  247   0.174831    -8.403516     -7.930415       0.329150       0.001171
  248   0.174831    -8.419068     -7.946465       0.329150       0.001171
  249   0.174833    -8.434172     -7.961928       0.329149       0.001171
  250   0.174831    -8.448885     -7.976846       0.329149       0.001171

-------------------------- File Output Summary --------------------------
Writing comma-separated values (CSV) surface files.
Merging connectivities in the Master node.
Merging coordinates in the Master node.
Merging solution in the Master node.
Writing SU2 native restart file.
Writing Paraview ASCII volume solution file.
Writing Paraview ASCII surface solution file.
Writing the forces breakdown file.
-------------------------------------------------------------------------

  251   0.175146    -8.463284     -7.991287       0.329149       0.001171
  252   0.175144    -8.477458     -8.005343       0.329149       0.001171
  253   0.175143    -8.491503     -8.019119       0.329149       0.001171
  254   0.175145    -8.505517     -8.032730       0.329149       0.001171
  255   0.175142    -8.519595     -8.046295       0.329149       0.001171
  256   0.175140    -8.533828     -8.059927       0.329148       0.001171
  257   0.175138    -8.548295     -8.073735       0.329148       0.001171
  258   0.175134    -8.563063     -8.087814       0.329148       0.001171
  259   0.175132    -8.578188     -8.102247       0.329148       0.001171
  260   0.175134    -8.593706     -8.117097       0.329148       0.001171
  261   0.175131    -8.609643     -8.132413       0.329148       0.001171
  262   0.175130    -8.626003     -8.148223       0.329148       0.001171
  263   0.175128    -8.642777     -8.164540       0.329148       0.001171
  264   0.175128    -8.659940     -8.181353       0.329148       0.001171
  265   0.175126    -8.677452     -8.198638       0.329148       0.001171
  266   0.175125    -8.695258     -8.216350       0.329148       0.001171
  267   0.175123    -8.713290     -8.234428       0.329148       0.001171
  268   0.175122    -8.731471     -8.252796       0.329148       0.001171
  269   0.175121    -8.749714     -8.271361       0.329148       0.001171
  270   0.175119    -8.767927     -8.290022       0.329148       0.001171
  271   0.175120    -8.786016     -8.308669       0.329148       0.001171
  272   0.175118    -8.803893     -8.327189       0.329149       0.001171
  273   0.175116    -8.821473     -8.345470       0.329149       0.001171
  274   0.175115    -8.838687     -8.363408       0.329149       0.001171

-------------------------- File Output Summary --------------------------
Writing comma-separated values (CSV) surface files.
Merging connectivities in the Master node.
Merging coordinates in the Master node.
Merging solution in the Master node.
Writing SU2 native restart file.
Writing Paraview ASCII volume solution file.
Writing Paraview ASCII surface solution file.
Writing the forces breakdown file.
-------------------------------------------------------------------------

History file, closed.

------------------------- Solver Postprocessing -------------------------
Deleted CNumerics container.
Deleted CIntegration container.
Deleted CSolver container.
Deleted CIteration container.
Deleted CInterpolator container.
Deleted CTransfer container.
Deleted CGeometry container.
Deleted CFreeFormDefBox class.
Deleted CSurfaceMovement class.
Deleted CVolumetricMovement class.
Deleted CConfig container.
Deleted COutput class.
-------------------------------------------------------------------------

Completed in 48.254462 seconds on 1 core.

------------------------- Exit Success (SU2_CFD) ------------------------

