
-------------------------------------------------------------------------
|    ___ _   _ ___                                                      |
|   / __| | | |_  )   Release 5.0.0  "Raven"                            |
|   \__ \ |_| |/ /                                                      |
|   |___/\___//___|   Suite (Computational Fluid Dynamics Code)         |
|                                                                       |
-------------------------------------------------------------------------
| SU2 Original Developers: Dr. Francisco D. Palacios.                   |
|                          Dr. Thomas D. Economon.                      |
-------------------------------------------------------------------------
| SU2 Developers:                                                       |
| - Prof. Juan J. Alonso's group at Stanford University.                |
| - Prof. Piero Colonna's group at Delft University of Technology.      |
| - Prof. Nicolas R. Gauger's group at Kaiserslautern U. of Technology. |
| - Prof. Alberto Guardone's group at Polytechnic University of Milan.  |
| - Prof. Rafael Palacios' group at Imperial College London.            |
| - Prof. Edwin van der Weide's group at the University of Twente.      |
| - Prof. Vincent Terrapon's group at the University of Liege.          |
-------------------------------------------------------------------------
| Copyright (C) 2012-2017 SU2, the open-source CFD code.                |
|                                                                       |
| SU2 is free software; you can redistribute it and/or                  |
| modify it under the terms of the GNU Lesser General Public            |
| License as published by the Free Software Foundation; either          |
| version 2.1 of the License, or (at your option) any later version.    |
|                                                                       |
| SU2 is distributed in the hope that it will be useful,                |
| but WITHOUT ANY WARRANTY; without even the implied warranty of        |
| MERCHANTABILITY or FITNESS FOR A PARTICULAR PURPOSE. See the GNU      |
| Lesser General Public License for more details.                       |
|                                                                       |
| You should have received a copy of the GNU Lesser General Public      |
| License along with SU2. If not, see <http://www.gnu.org/licenses/>.   |
-------------------------------------------------------------------------

------------------------ Physical Case Definition -----------------------
Compressible Euler equations.
Mach number: 0.8.
Angle of attack (AoA): 1.25 deg, and angle of sideslip (AoS): 0 deg.
No restart solution, use the values at infinity (freestream).
Non-Dimensional simulation (P=1.0, Rho=1.0, T=1.0 at the farfield).
The reference length/area (force coefficient) is 1.
The reference length (moment computation) is 1.
Reference origin (moment computation) is (0.25, 0, 0).
Surface(s) where the force coefficients are evaluated: airfoil.
Surface(s) where the objective function is evaluated: airfoil.
Surface(s) plotted in the output file: airfoil.
Surface(s) affected by the design variables: airfoil.
Input mesh file name: mesh_NACA0012_inv_deform.su2

---------------------- Space Numerical Integration ----------------------
Jameson-Schmidt-Turkel scheme for the flow inviscid terms.
JST viscous coefficients (1st, 2nd & 4th): 0.15, 0.5, 0.02.
The method includes a grid stretching correction (p = 0.3).
Second order integration.
Gradient Computation using weighted Least-Squares method.

---------------------- Time Numerical Integration -----------------------
Local time stepping (steady state simulation).
Euler implicit method for the flow equations.
W Multigrid Cycle, with 3 multigrid levels.
Damping factor for the residual restriction: 1.
Damping factor for the correction prolongation: 1.
No CFL adaptation.
Multigrid Level:                       0     1     2     3
Courant-Friedrichs-Lewy number:        5
MG PreSmooth coefficients:             1     2     3     3
MG PostSmooth coefficients:            0     0     0     0
MG CorrecSmooth coefficients:          0     0     0     0

------------------------- Convergence Criteria --------------------------
Maximum number of iterations: 2000.
Cauchy criteria for Drag using 100 elements and epsilon 1e-06.
Start convergence criteria at iteration 10.

-------------------------- Output Information ---------------------------
Writing a flow solution every 250 iterations.
Writing the convergence history every 1 iterations.
The output file format is Paraview ASCII (.vtk).
Convergence history file name: history_direct.
Forces breakdown file name: forces_breakdown.dat.
Surface flow coefficients file name: surface_flow.
Flow variables file name: flow.
Restart flow file name: restart_flow.dat.

------------------- Config File Boundary Information --------------------
Euler wall boundary marker(s): airfoil.
Far-field boundary marker(s): farfield.

---------------------- Read Grid File Information -----------------------
Two dimensional problem.
5233 points.
2 surface markers.
200 boundary elements in index 0 (Marker = airfoil).
50 boundary elements in index 1 (Marker = farfield).
10216 triangles.

------------------------- Geometry Preprocessing ------------------------
Setting point connectivity.
Renumbering points (Reverse Cuthill McKee Ordering).
Recomputing point connectivity.
Setting element connectivity.
Checking the numerical grid orientation.
Identifying edges and vertices.
Computing centers of gravity.
Setting the control volume structure.
Area of the computational grid: 1.25e+03.
Searching for the closest normal neighbors to the surfaces.
Compute the surface curvature.
Max K: 7.84e+03. Mean K: 35.2. Standard deviation K: 494.
Checking for periodicity.
Setting the multigrid structure.
MG level: 0 -> CVs: 5233. Agglomeration rate 1/1.00. CFL 5.
MG level: 1 -> CVs: 1533. Agglomeration rate 1/3.41. CFL 4.06.
MG level: 2 -> CVs: 443. Agglomeration rate 1/3.46. CFL 3.27.
MG level: 3 -> CVs: 125. Agglomeration rate 1/3.54. CFL 2.61.
Computing wall distances.
Wetted area = 2.03 m.
Area projection in the x-plane = 0.11 m, y-plane = 1 m.

------------------------- Driver information --------------------------
A Fluid driver has been instantiated.

------------------------ Iteration Preprocessing ------------------------
Zone 1: Euler/Navier-Stokes/RANS flow iteration.

------------------------- Solver Preprocessing --------------------------
Inviscid flow: Computing density based on free-stream
temperature and pressure using the ideal gas law.
Force coefficients computed using free-stream values.
-- Input conditions:
Fluid Model: STANDARD_AIR 
Specific gas constant: 287.058 N.m/kg.K.
Specific gas constant (non-dim): 1
Specific Heat Ratio: 1.4
Free-stream static pressure: 101325 Pa.
Free-stream total pressure: 154454 Pa.
Free-stream temperature: 288.15 K.
Free-stream density: 1.22498 kg/m^3.
Free-stream velocity: (272.173, 5.93883) m/s. Magnitude: 272.238 m/s (529.186 KTS).
Free-stream total energy per unit mass: 243846 m^2/s^2.
-- Reference values:
Reference specific gas constant: 287.058 N.m/kg.K.
Reference pressure: 101325 Pa.
Reference temperature: 288.15 K.
Reference density: 1.22498 kg/m^3.
Reference velocity: 287.603 m/s.
Reference energy per unit mass: 82715.8 m^2/s^2.
-- Resulting non-dimensional state:
Mach number (non-dim): 0.8
Specific gas constant (non-dim): 1
Free-stream temperature (non-dim): 1
Free-stream pressure (non-dim): 1
Free-stream density (non-dim): 1
Free-stream velocity (non-dim): (0.946348, 0.0206494). Magnitude: 0.946573
Free-stream total energy per unit mass (non-dim): 2.948

Initialize Jacobian structure (Euler). MG level: 0.
Initialize Jacobian structure (Euler). MG level: 1.
Initialize Jacobian structure (Euler). MG level: 2.
Initialize Jacobian structure (Euler). MG level: 3.

----------------- Integration and Numerics Preprocessing ----------------
Integration Preprocessing.
Numerics Preprocessing.

------------------------------ Begin Solver -----------------------------

---------------------- Local Time Stepping Summary ----------------------
MG level: 0 -> Min. DT: 0.000222815. Max. DT: 1.81396. CFL: 5.
MG level: 1 -> Min. DT: 0.000367785. Max. DT: 2.77317. CFL: 4.05935.
MG level: 2 -> Min. DT: 0.000502583. Max. DT: 3.70647. CFL: 3.27325.
MG level: 3 -> Min. DT: 0.000446399. Max. DT: 4.74449. CFL: 2.6081.
-------------------------------------------------------------------------

----------------------- Residual Evolution Summary ----------------------
log10[Maximum residual]: -2.56783.
Maximum residual point 97, located at (0.00056, -0.00425299).
-------------------------------------------------------------------------

 Iter    Time(s)     Res[Rho]     Res[RhoE]      CL(Total)      CD(Total)
    0   0.178035    -3.624146     -3.027768       0.090424       0.087178
    1   0.175911    -3.507849     -2.888711       0.131295       0.045069
    2   0.175281    -3.689161     -3.103419       0.166263       0.030377
    3   0.174955    -3.705489     -3.136889       0.195354       0.021058
    4   0.174789    -3.751094     -3.187720       0.223492       0.015340
    5   0.174615    -3.780062     -3.229402       0.249324       0.011457
    6   0.174826    -3.795878     -3.247396       0.271097       0.008653
    7   0.174713    -3.835621     -3.283061       0.288229       0.006600
    8   0.174658    -3.900479     -3.351970       0.301179       0.005108
    9   0.174652    -3.961064     -3.425416       0.310714       0.004061
   10   0.174578    -3.996945     -3.467660       0.317549       0.003363
   11   0.174509    -4.029133     -3.497841       0.322321       0.002914
   12   0.174561    -4.073479     -3.541647       0.325602       0.002627
   13   0.174540    -4.125341     -3.598774       0.327885       0.002442
   14   0.174501    -4.175728     -3.657388       0.329547       0.002320
   15   0.174482    -4.221647     -3.708867       0.330834       0.002236
   16   0.174467    -4.265118     -3.753824       0.331886       0.002170
   17   0.174469    -4.308436     -3.797617       0.332777       0.002111
   18   0.174447    -4.351925     -3.843147       0.333554       0.002054
   19   0.174417    -4.394863     -3.889708       0.334250       0.001995
   20   0.174407    -4.436905     -3.935713       0.334885       0.001934
   21   0.174380    -4.477875     -3.980019       0.335464       0.001873
   22   0.174372    -4.517502     -4.022148       0.335982       0.001815
   23   0.174371    -4.555665     -4.062189       0.336430       0.001760
   24   0.174349    -4.592545     -4.100561       0.336798       0.001713
   25   0.174338    -4.628461     -4.137710       0.337092       0.001672
   26   0.174325    -4.663768     -4.174075       0.337318       0.001636
   27   0.174311    -4.698383     -4.209574       0.337491       0.001607
   28   0.174296    -4.731887     -4.243850       0.337625       0.001583
   29   0.174305    -4.763841     -4.276511       0.337734       0.001565
   30   0.174281    -4.794030     -4.307402       0.337825       0.001550
   31   0.174269    -4.822493     -4.336615       0.337903       0.001539
   32   0.174265    -4.849722     -4.364694       0.337968       0.001528
   33   0.174263    -4.875927     -4.391804       0.338021       0.001518
   34   0.174261    -4.901298     -4.418053       0.338062       0.001509
   35   0.174271    -4.925861     -4.443327       0.338091       0.001499
   36   0.174265    -4.949599     -4.467579       0.338109       0.001490
   37   0.174262    -4.972490     -4.490828       0.338119       0.001480
   38   0.174251    -4.994616     -4.513136       0.338121       0.001470
   39   0.174241    -5.016043     -4.534578       0.338115       0.001460

---------------------- Local Time Stepping Summary ----------------------
MG level: 0 -> Min. DT: 0.000248026. Max. DT: 1.81392. CFL: 5.
MG level: 1 -> Min. DT: 0.000391496. Max. DT: 2.77177. CFL: 4.05935.
MG level: 2 -> Min. DT: 0.000521119. Max. DT: 3.70531. CFL: 3.27325.
MG level: 3 -> Min. DT: 0.000458453. Max. DT: 4.74751. CFL: 2.6081.
-------------------------------------------------------------------------

----------------------- Residual Evolution Summary ----------------------
log10[Maximum residual]: -4.01577.
Maximum residual point 1180, located at (0.720475, 0.121987).
-------------------------------------------------------------------------

 Iter    Time(s)     Res[Rho]     Res[RhoE]      CL(Total)      CD(Total)
   40   0.174245    -5.036737     -4.555139       0.338102       0.001452
   41   0.174251    -5.056823     -4.574969       0.338080       0.001444
   42   0.174262    -5.076004     -4.593823       0.338048       0.001438
   43   0.174256    -5.094236     -4.611770       0.338003       0.001433
   44   0.174249    -5.111600     -4.629006       0.337946       0.001430
   45   0.174244    -5.128171     -4.645671       0.337875       0.001427
   46   0.174259    -5.144168     -4.662004       0.337793       0.001426
   47   0.174253    -5.159863     -4.678222       0.337699       0.001425
   48   0.174246    -5.175674     -4.694652       0.337596       0.001426
   49   0.174246    -5.191526     -4.711007       0.337486       0.001428
   50   0.174244    -5.207562     -4.727398       0.337371       0.001430
   51   0.174241    -5.223740     -4.743778       0.337255       0.001433
   52   0.174251    -5.239926     -4.760000       0.337141       0.001436
   53   0.174241    -5.256021     -4.776004       0.337030       0.001439
   54   0.174235    -5.271951     -4.791808       0.336925       0.001442
   55   0.174229    -5.287758     -4.807553       0.336828       0.001444
   56   0.174225    -5.303423     -4.823231       0.336738       0.001447
   57   0.174227    -5.319025     -4.838919       0.336657       0.001449
   58   0.174256    -5.334752     -4.854827       0.336583       0.001450
   59   0.174419    -5.350883     -4.871235       0.336515       0.001451
   60   0.174553    -5.367489     -4.888166       0.336453       0.001452
   61   0.174662    -5.384610     -4.905594       0.336395       0.001452
   62   0.174840    -5.402241     -4.923472       0.336339       0.001452
   63   0.175083    -5.420491     -4.941935       0.336286       0.001451
   64   0.175197    -5.439350     -4.960989       0.336233       0.001450
   65   0.175291    -5.458667     -4.980452       0.336179       0.001448
   66   0.175346    -5.478388     -5.000252       0.336125       0.001446
   67   0.175400    -5.498642     -5.020600       0.336071       0.001444
   68   0.175385    -5.519185     -5.041183       0.336016       0.001441
   69   0.175375    -5.540030     -5.062064       0.335960       0.001438
   70   0.175364    -5.561047     -5.083100       0.335905       0.001436
   71   0.175346    -5.582039     -5.104088       0.335851       0.001433
   72   0.175324    -5.602939     -5.125018       0.335800       0.001430
   73   0.175306    -5.623244     -5.145285       0.335751       0.001428
   74   0.175293    -5.642719     -5.164697       0.335706       0.001426
   75   0.175278    -5.661135     -5.183064       0.335666       0.001424
   76   0.175259    -5.678335     -5.200230       0.335632       0.001422
   77   0.175247    -5.694278     -5.216160       0.335602       0.001421
   78   0.175234    -5.709021     -5.230910       0.335578       0.001420
   79   0.175220    -5.722640     -5.244522       0.335560       0.001419

---------------------- Local Time Stepping Summary ----------------------
MG level: 0 -> Min. DT: 0.000247757. Max. DT: 1.81392. CFL: 5.
MG level: 1 -> Min. DT: 0.00039055. Max. DT: 2.77178. CFL: 4.05935.
MG level: 2 -> Min. DT: 0.000519919. Max. DT: 3.70532. CFL: 3.27325.
MG level: 3 -> Min. DT: 0.000457433. Max. DT: 4.74749. CFL: 2.6081.
-------------------------------------------------------------------------

----------------------- Residual Evolution Summary ----------------------
log10[Maximum residual]: -4.74116.
Maximum residual point 1206, located at (0.393271, 0.136865).
-------------------------------------------------------------------------

 Iter    Time(s)     Res[Rho]     Res[RhoE]      CL(Total)      CD(Total)
   80   0.175212    -5.735433     -5.257307       0.335546       0.001419
   81   0.175201    -5.747610     -5.269451       0.335537       0.001419
   82   0.175185    -5.759468     -5.281258       0.335531       0.001418
   83   0.175173    -5.771336     -5.293072       0.335528       0.001418
   84   0.175158    -5.783470     -5.305171       0.335527       0.001419
   85   0.175142    -5.796083     -5.317798       0.335528       0.001419
   86   0.175137    -5.809380     -5.331183       0.335529       0.001419
   87   0.175125    -5.823391     -5.345334       0.335529       0.001419
   88   0.175111    -5.838090     -5.360186       0.335528       0.001419
   89   0.175102    -5.853582     -5.375924       0.335525       0.001419
   90   0.175091    -5.869842     -5.392531       0.335520       0.001419
   91   0.175084    -5.886801     -5.409878       0.335513       0.001419
   92   0.175078    -5.904359     -5.427811       0.335503       0.001419
   93   0.175064    -5.922445     -5.446251       0.335490       0.001419
   94   0.175051    -5.940919     -5.465039       0.335476       0.001419
   95   0.175042    -5.959620     -5.484001       0.335459       0.001418
   96   0.175028    -5.978422     -5.503010       0.335441       0.001418
   97   0.175029    -5.997161     -5.521893       0.335422       0.001417
   98   0.175026    -6.015645     -5.540430       0.335403       0.001417
   99   0.175018    -6.033876     -5.558655       0.335385       0.001417
  100   0.175010    -6.051898     -5.576660       0.335367       0.001416
  101   0.175000    -6.069746     -5.594465       0.335351       0.001416
  102   0.174991    -6.087504     -5.612136       0.335336       0.001415
  103   0.174989    -6.105264     -5.629769       0.335324       0.001415
  104   0.174977    -6.123144     -5.647495       0.335315       0.001415
  105   0.174966    -6.141275     -5.665462       0.335309       0.001415
  106   0.174958    -6.159781     -5.683798       0.335306       0.001414
  107   0.174948    -6.178773     -5.702623       0.335306       0.001414
  108   0.174941    -6.198306     -5.722005       0.335310       0.001414
  109   0.174935    -6.218376     -5.741948       0.335317       0.001414
  110   0.174928    -6.238920     -5.762390       0.335326       0.001414
  111   0.174919    -6.259873     -5.783288       0.335339       0.001414
  112   0.174912    -6.281102     -5.804521       0.335354       0.001414
  113   0.174906    -6.302402     -5.825890       0.335371       0.001414
  114   0.174900    -6.323558     -5.847183       0.335390       0.001414
  115   0.174895    -6.344349     -5.868177       0.335410       0.001414
  116   0.174887    -6.364533     -5.888610       0.335431       0.001414
  117   0.174879    -6.383914     -5.908262       0.335453       0.001413
  118   0.174870    -6.402329     -5.926935       0.335476       0.001413
  119   0.174879    -6.419755     -5.944582       0.335498       0.001413

---------------------- Local Time Stepping Summary ----------------------
MG level: 0 -> Min. DT: 0.00024768. Max. DT: 1.81392. CFL: 5.
MG level: 1 -> Min. DT: 0.000390421. Max. DT: 2.77178. CFL: 4.05935.
MG level: 2 -> Min. DT: 0.000519828. Max. DT: 3.70532. CFL: 3.27325.
MG level: 3 -> Min. DT: 0.000457318. Max. DT: 4.74749. CFL: 2.6081.
-------------------------------------------------------------------------

----------------------- Residual Evolution Summary ----------------------
log10[Maximum residual]: -5.29521.
Maximum residual point 1455, located at (0.458767, 0.190157).
-------------------------------------------------------------------------

 Iter    Time(s)     Res[Rho]     Res[RhoE]      CL(Total)      CD(Total)
  120   0.174877    -6.436236     -5.961224       0.335520       0.001413
  121   0.174868    -6.451876     -5.976936       0.335541       0.001413
  122   0.174859    -6.466838     -5.991860       0.335561       0.001413
  123   0.174852    -6.481317     -6.006199       0.335580       0.001413
  124   0.174846    -6.495537     -6.020185       0.335597       0.001412
  125   0.174842    -6.509796     -6.034156       0.335613       0.001412
  126   0.174840    -6.524265     -6.048265       0.335628       0.001412
  127   0.174837    -6.539148     -6.062766       0.335641       0.001412
  128   0.174830    -6.554579     -6.077833       0.335652       0.001412
  129   0.174824    -6.570620     -6.093541       0.335661       0.001411
  130   0.174820    -6.587315     -6.109968       0.335668       0.001411
  131   0.174814    -6.604673     -6.127158       0.335674       0.001411
  132   0.174811    -6.622629     -6.145058       0.335678       0.001411
  133   0.174805    -6.641063     -6.163552       0.335681       0.001410
  134   0.174797    -6.659830     -6.182490       0.335682       0.001410
  135   0.174794    -6.678747     -6.201680       0.335683       0.001410
  136   0.174791    -6.697595     -6.220879       0.335682       0.001410
  137   0.174787    -6.716123     -6.239803       0.335680       0.001410
  138   0.174787    -6.734077     -6.258168       0.335677       0.001410
  139   0.174779    -6.751211     -6.275691       0.335673       0.001410
  140   0.174772    -6.767331     -6.292140       0.335669       0.001409
  141   0.174765    -6.782338     -6.307383       0.335665       0.001409
  142   0.174758    -6.796202     -6.321362       0.335660       0.001409
  143   0.174757    -6.808994     -6.334140       0.335656       0.001409
  144   0.174750    -6.820859     -6.345867       0.335651       0.001409
  145   0.174745    -6.832007     -6.356774       0.335647       0.001409
  146   0.174740    -6.842690     -6.367129       0.335643       0.001409
  147   0.174738    -6.853204     -6.377266       0.335639       0.001409
  148   0.174734    -6.863835     -6.387497       0.335635       0.001409
  149   0.174733    -6.874836     -6.398101       0.335632       0.001409
  150   0.174727    -6.886423     -6.409325       0.335630       0.001409
  151   0.174721    -6.898762     -6.421356       0.335628       0.001409
  152   0.174717    -6.911974     -6.434339       0.335626       0.001409
  153   0.174710    -6.926114     -6.448343       0.335626       0.001409
  154   0.174704    -6.941187     -6.463386       0.335625       0.001410
  155   0.174703    -6.957147     -6.479428       0.335625       0.001410
  156   0.174703    -6.973907     -6.496387       0.335626       0.001410
  157   0.174699    -6.991351     -6.514145       0.335627       0.001410
  158   0.174694    -7.009329     -6.532544       0.335629       0.001410
  159   0.174689    -7.027660     -6.551384       0.335631       0.001410

---------------------- Local Time Stepping Summary ----------------------
MG level: 0 -> Min. DT: 0.00024768. Max. DT: 1.81392. CFL: 5.
MG level: 1 -> Min. DT: 0.000390412. Max. DT: 2.77178. CFL: 4.05935.
MG level: 2 -> Min. DT: 0.000519811. Max. DT: 3.70532. CFL: 3.27325.
MG level: 3 -> Min. DT: 0.000457302. Max. DT: 4.74749. CFL: 2.6081.
-------------------------------------------------------------------------

----------------------- Residual Evolution Summary ----------------------
log10[Maximum residual]: -5.93939.
Maximum residual point 1072, located at (0.514769, 0.139319).
-------------------------------------------------------------------------

 Iter    Time(s)     Res[Rho]     Res[RhoE]      CL(Total)      CD(Total)
  160   0.174687    -7.046158     -6.570458       0.335633       0.001410
  161   0.174683    -7.064651     -6.589559       0.335636       0.001410
  162   0.174677    -7.082991     -6.608502       0.335639       0.001410
  163   0.174675    -7.101059     -6.627119       0.335642       0.001410
  164   0.174671    -7.118789     -6.645307       0.335645       0.001410
  165   0.174668    -7.136178     -6.663033       0.335648       0.001410
  166   0.174670    -7.153267     -6.680302       0.335651       0.001410
  167   0.174665    -7.170152     -6.697198       0.335655       0.001410
  168   0.174661    -7.186942     -6.713830       0.335658       0.001410
  169   0.174659    -7.203743     -6.730310       0.335660       0.001410
  170   0.174654    -7.220698     -6.746815       0.335663       0.001410
  171   0.174650    -7.237940     -6.763511       0.335666       0.001411
  172   0.174651    -7.255580     -6.780546       0.335668       0.001411
  173   0.174646    -7.273702     -6.798045       0.335670       0.001411
  174   0.174641    -7.292346     -6.816092       0.335672       0.001411
  175   0.174640    -7.311517     -6.834739       0.335673       0.001411
  176   0.174636    -7.331172     -6.853983       0.335674       0.001411
  177   0.174632    -7.351213     -6.873754       0.335675       0.001411
  178   0.174632    -7.371512     -6.893952       0.335676       0.001411
  179   0.174629    -7.391911     -6.914430       0.335677       0.001411
  180   0.174627    -7.412223     -6.934999       0.335677       0.001411
  181   0.174624    -7.432256     -6.955453       0.335677       0.001411
  182   0.174620    -7.451830     -6.975578       0.335677       0.001411
  183   0.174618    -7.470787     -6.995168       0.335676       0.001411
  184   0.174615    -7.489024     -7.014064       0.335676       0.001411
  185   0.174646    -7.506470     -7.032134       0.335676       0.001411
  186   0.174651    -7.523125     -7.049318       0.335675       0.001411
  187   0.174647    -7.539066     -7.065644       0.335674       0.001411
  188   0.174644    -7.554423     -7.081208       0.335674       0.001411
  189   0.174643    -7.569372     -7.096173       0.335673       0.001411
  190   0.174637    -7.584114     -7.110746       0.335672       0.001411
  191   0.174633    -7.598864     -7.125168       0.335672       0.001411
  192   0.174630    -7.613831     -7.139683       0.335671       0.001411
  193   0.174627    -7.629189     -7.154503       0.335671       0.001411
  194   0.174624    -7.645104     -7.169842       0.335670       0.001411
  195   0.174627    -7.661691     -7.185868       0.335670       0.001411
  196   0.174624    -7.679030     -7.202707       0.335670       0.001411
  197   0.174620    -7.697151     -7.220432       0.335670       0.001411
  198   0.174619    -7.716037     -7.239060       0.335670       0.001411
  199   0.174617    -7.735622     -7.258551       0.335670       0.001411

---------------------- Local Time Stepping Summary ----------------------
MG level: 0 -> Min. DT: 0.000247681. Max. DT: 1.81392. CFL: 5.
MG level: 1 -> Min. DT: 0.000390413. Max. DT: 2.77178. CFL: 4.05935.
MG level: 2 -> Min. DT: 0.000519811. Max. DT: 3.70532. CFL: 3.27325.
MG level: 3 -> Min. DT: 0.000457301. Max. DT: 4.74749. CFL: 2.6081.
-------------------------------------------------------------------------

----------------------- Residual Evolution Summary ----------------------
log10[Maximum residual]: -6.66587.
Maximum residual point 1311, located at (0.441556, 0.162424).
-------------------------------------------------------------------------

 Iter    Time(s)     Res[Rho]     Res[RhoE]      CL(Total)      CD(Total)
  200   0.174615    -7.755798     -7.278814       0.335670       0.001411
  201   0.174613    -7.776418     -7.299706       0.335670       0.001411
  202   0.174609    -7.797289     -7.321022       0.335670       0.001411
  203   0.174606    -7.818193     -7.342520       0.335671       0.001411
  204   0.174603    -7.838906     -7.363938       0.335671       0.001411
  205   0.174602    -7.859216     -7.385005       0.335672       0.001411
  206   0.174602    -7.878934     -7.405468       0.335672       0.001411
  207   0.174598    -7.897911     -7.425106       0.335673       0.001411
  208   0.174596    -7.916084     -7.443786       0.335673       0.001411
  209   0.174593    -7.933437     -7.461443       0.335674       0.001411
  210   0.174593    -7.950015     -7.478087       0.335674       0.001411
  211   0.174591    -7.965931     -7.493819       0.335675       0.001411
  212   0.174592    -7.981365     -7.508841       0.335675       0.001411
  213   0.174591    -7.996531     -7.523397       0.335675       0.001411
  214   0.174588    -8.011657     -7.537766       0.335676       0.001411
  215   0.174588    -8.026960     -7.552223       0.335676       0.001411
  216   0.174587    -8.042630     -7.567018       0.335677       0.001411
  217   0.174585    -8.058821     -7.582366       0.335677       0.001411
  218   0.174586    -8.075644     -7.598430       0.335677       0.001411
  219   0.174582    -8.093161     -7.615320       0.335677       0.001411
  220   0.174580    -8.111383     -7.633085       0.335677       0.001411
  221   0.174577    -8.130267     -7.651710       0.335677       0.001411
  222   0.174575    -8.149716     -7.671117       0.335677       0.001411
  223   0.174573    -8.169588     -7.691170       0.335677       0.001411
  224   0.174573    -8.189695     -7.711672       0.335677       0.001411
  225   0.174570    -8.209822     -7.732383       0.335677       0.001411
  226   0.174569    -8.229733     -7.753027       0.335677       0.001411
  227   0.174566    -8.249201     -7.773319       0.335677       0.001411
  228   0.174564    -8.268010     -7.792971       0.335677       0.001411
  229   0.174564    -8.285991     -7.811738       0.335677       0.001411
  230   0.174562    -8.303050     -7.829451       0.335677       0.001411
  231   0.174558    -8.319168     -7.846031       0.335676       0.001411
  232   0.174556    -8.334402     -7.861492       0.335676       0.001411
  233   0.174553    -8.348875     -7.875942       0.335676       0.001411
  234   0.174550    -8.362768     -7.889568       0.335676       0.001411
  235   0.174552    -8.376299     -7.902621       0.335676       0.001411
  236   0.174549    -8.389703     -7.915386       0.335675       0.001411
  237   0.174546    -8.403212     -7.928149       0.335675       0.001411
  238   0.174544    -8.417033     -7.941179       0.335675       0.001411
  239   0.174540    -8.431339     -7.954707       0.335675       0.001411

---------------------- Local Time Stepping Summary ----------------------
MG level: 0 -> Min. DT: 0.000247681. Max. DT: 1.81392. CFL: 5.
MG level: 1 -> Min. DT: 0.000390413. Max. DT: 2.77178. CFL: 4.05935.
MG level: 2 -> Min. DT: 0.000519811. Max. DT: 3.70532. CFL: 3.27325.
MG level: 3 -> Min. DT: 0.000457301. Max. DT: 4.74749. CFL: 2.6081.
-------------------------------------------------------------------------

----------------------- Residual Evolution Summary ----------------------
log10[Maximum residual]: -7.23376.
Maximum residual point 1206, located at (0.393271, 0.136865).
-------------------------------------------------------------------------

 Iter    Time(s)     Res[Rho]     Res[RhoE]      CL(Total)      CD(Total)
  240   0.174538    -8.446261     -7.968917       0.335675       0.001411
  241   0.174540    -8.461872     -7.983927       0.335675       0.001411
  242   0.174539    -8.478194     -7.999801       0.335675       0.001411
  243   0.174536    -8.495202     -8.016543       0.335675       0.001411
  244   0.174533    -8.512822     -8.034100       0.335675       0.001411
  245   0.174531    -8.530937     -8.052364       0.335675       0.001411
  246   0.174529    -8.549396     -8.071181       0.335675       0.001411
  247   0.174528    -8.568019     -8.090356       0.335675       0.001411
  248   0.174524    -8.586616     -8.109663       0.335675       0.001411
  249   0.174522    -8.604996     -8.128867       0.335675       0.001411
  250   0.174519    -8.622992     -8.147739       0.335675       0.001411

-------------------------- File Output Summary --------------------------
Writing comma-separated values (CSV) surface files.
Merging connectivities in the Master node.
Merging coordinates in the Master node.
Merging solution in the Master node.
Writing SU2 native restart file.
Writing Paraview ASCII volume solution file.
Writing Paraview ASCII surface solution file.
Writing the forces breakdown file.
-------------------------------------------------------------------------

  251   0.174831    -8.640472     -8.166080       0.335675       0.001411
  252   0.174831    -8.657357     -8.183743       0.335675       0.001411
  253   0.174831    -8.673632     -8.200646       0.335675       0.001411
  254   0.174827    -8.689340     -8.216787       0.335675       0.001411
  255   0.174824    -8.704587     -8.232240       0.335675       0.001411
  256   0.174824    -8.719525     -8.247149       0.335675       0.001411
  257   0.174820    -8.734338     -8.261712       0.335676       0.001411
  258   0.174819    -8.749227     -8.276159       0.335676       0.001411
  259   0.174815    -8.764386     -8.290727       0.335676       0.001411

-------------------------- File Output Summary --------------------------
Writing comma-separated values (CSV) surface files.
Merging connectivities in the Master node.
Merging coordinates in the Master node.
Merging solution in the Master node.
Writing SU2 native restart file.
Writing Paraview ASCII volume solution file.
Writing Paraview ASCII surface solution file.
Writing the forces breakdown file.
-------------------------------------------------------------------------

History file, closed.

------------------------- Solver Postprocessing -------------------------
Deleted CNumerics container.
Deleted CIntegration container.
Deleted CSolver container.
Deleted CIteration container.
Deleted CInterpolator container.
Deleted CTransfer container.
Deleted CGeometry container.
Deleted CFreeFormDefBox class.
Deleted CSurfaceMovement class.
Deleted CVolumetricMovement class.
Deleted CConfig container.
Deleted COutput class.
-------------------------------------------------------------------------

Completed in 45.549095 seconds on 1 core.

------------------------- Exit Success (SU2_CFD) ------------------------

